1



                                 *********************************************

                                    NUMERICAL ELECTROMAGNETICS CODE (NEC-2D)

                                 *********************************************




                                     - - - - COMMENTS - - - -


                          Two-antenna array, baseline = 500 mm                                       
                          For mutual coupling analysis at 610 MHz                                    
                          Antenna 1: tags 1-14 at X offset = 0                                       
                          Antenna 2: tags 15-28 at X offset = +500 mm                                
                                                                                                     




                                 - - - STRUCTURE SPECIFICATION - - -

                                     COORDINATES MUST BE INPUT IN
                                     METERS OR BE SCALED TO METERS
                                     BEFORE STRUCTURE INPUT IS ENDED


  WIRE                                                                               NO. OF    FIRST  LAST     TAG
  NO.        X1         Y1         Z1          X2         Y2         Z2      RADIUS   SEG.     SEG.   SEG.     NO.
     1   -0.15000    0.02000    0.04000     0.15000    0.02000    0.04000    0.00350     21        1    21       1
     2   -0.15000    0.00000    0.01000     0.15000    0.00000    0.01000    0.00350     21       22    42       2
     3   -0.15000    0.00000   -0.01000     0.15000    0.00000   -0.01000    0.00350     21       43    63       3
     4   -0.15000    0.02000   -0.04000     0.15000    0.02000   -0.04000    0.00350     21       64    84       4
     5   -0.10500    0.09800    0.00000     0.10500    0.09800    0.00000    0.00200     21       85   105       5
     6   -0.10500    0.14200    0.00000     0.10500    0.14200    0.00000    0.00200     21      106   126       6
     7    0.10500    0.09800    0.00000     0.10500    0.14200    0.00000    0.00200      3      127   129       7
     8   -0.10500    0.09800    0.00000    -0.10500    0.14200    0.00000    0.00200      3      130   132       8
     9   -0.10500    0.18000    0.00000     0.10500    0.18000    0.00000    0.00350     21      133   153       9
    10   -0.10500    0.22000    0.00000     0.10500    0.22000    0.00000    0.00350     21      154   174      10
    11   -0.10500    0.27000    0.00000     0.10500    0.27000    0.00000    0.00350     21      175   195      11
    12   -0.10500    0.32000    0.00000     0.10500    0.32000    0.00000    0.00350     21      196   216      12
    13   -0.10500    0.38600    0.00000     0.10500    0.38600    0.00000    0.00350     21      217   237      13
    14   -0.10500    0.45500    0.00000     0.10500    0.45500    0.00000    0.00350     21      238   258      14
    15    0.35000    0.02000    0.04000     0.65000    0.02000    0.04000    0.00350     21      259   279      15
    16    0.35000    0.00000    0.01000     0.65000    0.00000    0.01000    0.00350     21      280   300      16
    17    0.35000    0.00000   -0.01000     0.65000    0.00000   -0.01000    0.00350     21      301   321      17
    18    0.35000    0.02000   -0.04000     0.65000    0.02000   -0.04000    0.00350     21      322   342      18
    19    0.39500    0.09800    0.00000     0.60500    0.09800    0.00000    0.00200     21      343   363      19
    20    0.39500    0.14200    0.00000     0.60500    0.14200    0.00000    0.00200     21      364   384      20
    21    0.60500    0.09800    0.00000     0.60500    0.14200    0.00000    0.00200      3      385   387      21
    22    0.39500    0.09800    0.00000     0.39500    0.14200    0.00000    0.00200      3      388   390      22
    23    0.39500    0.18000    0.00000     0.60500    0.18000    0.00000    0.00350     21      391   411      23
    24    0.39500    0.22000    0.00000     0.60500    0.22000    0.00000    0.00350     21      412   432      24
    25    0.39500    0.27000    0.00000     0.60500    0.27000    0.00000    0.00350     21      433   453      25
    26    0.39500    0.32000    0.00000     0.60500    0.32000    0.00000    0.00350     21      454   474      26
    27    0.39500    0.38600    0.00000     0.60500    0.38600    0.00000    0.00350     21      475   495      27
    28    0.39500    0.45500    0.00000     0.60500    0.45500    0.00000    0.00350     21      496   516      28

   TOTAL SEGMENTS USED=  516     NO. SEG. IN A SYMMETRIC CELL=  516     SYMMETRY FLAG=  0


         - MULTIPLE WIRE JUNCTIONS -
 JUNCTION    SEGMENTS  (- FOR END 1, + FOR END 2)
  NONE




                                 - - - - SEGMENTATION DATA - - - -

                                        COORDINATES IN METERS

                         I+ AND I- INDICATE THE SEGMENTS BEFORE AND AFTER I


  SEG.   COORDINATES OF SEG. CENTER     SEG.     ORIENTATION ANGLES    WIRE    CONNECTION DATA   TAG
  NO.       X         Y         Z       LENGTH     ALPHA     BETA      RADIUS    I-   I    I+    NO.
     1  -0.14286   0.02000   0.04000   0.01429    0.00000   0.00000   0.00350     0    1    2      1
     2  -0.12857   0.02000   0.04000   0.01429    0.00000   0.00000   0.00350     1    2    3      1
     3  -0.11429   0.02000   0.04000   0.01429    0.00000   0.00000   0.00350     2    3    4      1
     4  -0.10000   0.02000   0.04000   0.01429    0.00000   0.00000   0.00350     3    4    5      1
     5  -0.08571   0.02000   0.04000   0.01429    0.00000   0.00000   0.00350     4    5    6      1
     6  -0.07143   0.02000   0.04000   0.01429    0.00000   0.00000   0.00350     5    6    7      1
     7  -0.05714   0.02000   0.04000   0.01429    0.00000   0.00000   0.00350     6    7    8      1
     8  -0.04286   0.02000   0.04000   0.01429    0.00000   0.00000   0.00350     7    8    9      1
     9  -0.02857   0.02000   0.04000   0.01429    0.00000   0.00000   0.00350     8    9   10      1
    10  -0.01429   0.02000   0.04000   0.01429    0.00000   0.00000   0.00350     9   10   11      1
    11   0.00000   0.02000   0.04000   0.01429    0.00000   0.00000   0.00350    10   11   12      1
    12   0.01429   0.02000   0.04000   0.01429    0.00000   0.00000   0.00350    11   12   13      1
    13   0.02857   0.02000   0.04000   0.01429    0.00000   0.00000   0.00350    12   13   14      1
    14   0.04286   0.02000   0.04000   0.01429    0.00000   0.00000   0.00350    13   14   15      1
    15   0.05714   0.02000   0.04000   0.01429    0.00000   0.00000   0.00350    14   15   16      1
    16   0.07143   0.02000   0.04000   0.01429    0.00000   0.00000   0.00350    15   16   17      1
    17   0.08571   0.02000   0.04000   0.01429    0.00000   0.00000   0.00350    16   17   18      1
    18   0.10000   0.02000   0.04000   0.01429    0.00000   0.00000   0.00350    17   18   19      1
    19   0.11429   0.02000   0.04000   0.01429    0.00000   0.00000   0.00350    18   19   20      1
    20   0.12857   0.02000   0.04000   0.01429    0.00000   0.00000   0.00350    19   20   21      1
    21   0.14286   0.02000   0.04000   0.01429    0.00000   0.00000   0.00350    20   21    0      1
    22  -0.14286   0.00000   0.01000   0.01429    0.00000   0.00000   0.00350     0   22   23      2
    23  -0.12857   0.00000   0.01000   0.01429    0.00000   0.00000   0.00350    22   23   24      2
    24  -0.11429   0.00000   0.01000   0.01429    0.00000   0.00000   0.00350    23   24   25      2
    25  -0.10000   0.00000   0.01000   0.01429    0.00000   0.00000   0.00350    24   25   26      2
    26  -0.08571   0.00000   0.01000   0.01429    0.00000   0.00000   0.00350    25   26   27      2
    27  -0.07143   0.00000   0.01000   0.01429    0.00000   0.00000   0.00350    26   27   28      2
    28  -0.05714   0.00000   0.01000   0.01429    0.00000   0.00000   0.00350    27   28   29      2
    29  -0.04286   0.00000   0.01000   0.01429    0.00000   0.00000   0.00350    28   29   30      2
    30  -0.02857   0.00000   0.01000   0.01429    0.00000   0.00000   0.00350    29   30   31      2
    31  -0.01429   0.00000   0.01000   0.01429    0.00000   0.00000   0.00350    30   31   32      2
    32   0.00000   0.00000   0.01000   0.01429    0.00000   0.00000   0.00350    31   32   33      2
    33   0.01429   0.00000   0.01000   0.01429    0.00000   0.00000   0.00350    32   33   34      2
    34   0.02857   0.00000   0.01000   0.01429    0.00000   0.00000   0.00350    33   34   35      2
    35   0.04286   0.00000   0.01000   0.01429    0.00000   0.00000   0.00350    34   35   36      2
    36   0.05714   0.00000   0.01000   0.01429    0.00000   0.00000   0.00350    35   36   37      2
    37   0.07143   0.00000   0.01000   0.01429    0.00000   0.00000   0.00350    36   37   38      2
    38   0.08571   0.00000   0.01000   0.01429    0.00000   0.00000   0.00350    37   38   39      2
    39   0.10000   0.00000   0.01000   0.01429    0.00000   0.00000   0.00350    38   39   40      2
    40   0.11429   0.00000   0.01000   0.01429    0.00000   0.00000   0.00350    39   40   41      2
    41   0.12857   0.00000   0.01000   0.01429    0.00000   0.00000   0.00350    40   41   42      2
    42   0.14286   0.00000   0.01000   0.01429    0.00000   0.00000   0.00350    41   42    0      2
    43  -0.14286   0.00000  -0.01000   0.01429    0.00000   0.00000   0.00350     0   43   44      3
    44  -0.12857   0.00000  -0.01000   0.01429    0.00000   0.00000   0.00350    43   44   45      3
    45  -0.11429   0.00000  -0.01000   0.01429    0.00000   0.00000   0.00350    44   45   46      3
    46  -0.10000   0.00000  -0.01000   0.01429    0.00000   0.00000   0.00350    45   46   47      3
    47  -0.08571   0.00000  -0.01000   0.01429    0.00000   0.00000   0.00350    46   47   48      3
    48  -0.07143   0.00000  -0.01000   0.01429    0.00000   0.00000   0.00350    47   48   49      3
    49  -0.05714   0.00000  -0.01000   0.01429    0.00000   0.00000   0.00350    48   49   50      3
    50  -0.04286   0.00000  -0.01000   0.01429    0.00000   0.00000   0.00350    49   50   51      3
    51  -0.02857   0.00000  -0.01000   0.01429    0.00000   0.00000   0.00350    50   51   52      3
    52  -0.01429   0.00000  -0.01000   0.01429    0.00000   0.00000   0.00350    51   52   53      3
    53   0.00000   0.00000  -0.01000   0.01429    0.00000   0.00000   0.00350    52   53   54      3
    54   0.01429   0.00000  -0.01000   0.01429    0.00000   0.00000   0.00350    53   54   55      3
    55   0.02857   0.00000  -0.01000   0.01429    0.00000   0.00000   0.00350    54   55   56      3
    56   0.04286   0.00000  -0.01000   0.01429    0.00000   0.00000   0.00350    55   56   57      3
    57   0.05714   0.00000  -0.01000   0.01429    0.00000   0.00000   0.00350    56   57   58      3
    58   0.07143   0.00000  -0.01000   0.01429    0.00000   0.00000   0.00350    57   58   59      3
    59   0.08571   0.00000  -0.01000   0.01429    0.00000   0.00000   0.00350    58   59   60      3
    60   0.10000   0.00000  -0.01000   0.01429    0.00000   0.00000   0.00350    59   60   61      3
    61   0.11429   0.00000  -0.01000   0.01429    0.00000   0.00000   0.00350    60   61   62      3
    62   0.12857   0.00000  -0.01000   0.01429    0.00000   0.00000   0.00350    61   62   63      3
    63   0.14286   0.00000  -0.01000   0.01429    0.00000   0.00000   0.00350    62   63    0      3
    64  -0.14286   0.02000  -0.04000   0.01429    0.00000   0.00000   0.00350     0   64   65      4
    65  -0.12857   0.02000  -0.04000   0.01429    0.00000   0.00000   0.00350    64   65   66      4
    66  -0.11429   0.02000  -0.04000   0.01429    0.00000   0.00000   0.00350    65   66   67      4
    67  -0.10000   0.02000  -0.04000   0.01429    0.00000   0.00000   0.00350    66   67   68      4
    68  -0.08571   0.02000  -0.04000   0.01429    0.00000   0.00000   0.00350    67   68   69      4
    69  -0.07143   0.02000  -0.04000   0.01429    0.00000   0.00000   0.00350    68   69   70      4
    70  -0.05714   0.02000  -0.04000   0.01429    0.00000   0.00000   0.00350    69   70   71      4
    71  -0.04286   0.02000  -0.04000   0.01429    0.00000   0.00000   0.00350    70   71   72      4
    72  -0.02857   0.02000  -0.04000   0.01429    0.00000   0.00000   0.00350    71   72   73      4
    73  -0.01429   0.02000  -0.04000   0.01429    0.00000   0.00000   0.00350    72   73   74      4
    74   0.00000   0.02000  -0.04000   0.01429    0.00000   0.00000   0.00350    73   74   75      4
    75   0.01429   0.02000  -0.04000   0.01429    0.00000   0.00000   0.00350    74   75   76      4
    76   0.02857   0.02000  -0.04000   0.01429    0.00000   0.00000   0.00350    75   76   77      4
    77   0.04286   0.02000  -0.04000   0.01429    0.00000   0.00000   0.00350    76   77   78      4
    78   0.05714   0.02000  -0.04000   0.01429    0.00000   0.00000   0.00350    77   78   79      4
    79   0.07143   0.02000  -0.04000   0.01429    0.00000   0.00000   0.00350    78   79   80      4
    80   0.08571   0.02000  -0.04000   0.01429    0.00000   0.00000   0.00350    79   80   81      4
    81   0.10000   0.02000  -0.04000   0.01429    0.00000   0.00000   0.00350    80   81   82      4
    82   0.11429   0.02000  -0.04000   0.01429    0.00000   0.00000   0.00350    81   82   83      4
    83   0.12857   0.02000  -0.04000   0.01429    0.00000   0.00000   0.00350    82   83   84      4
    84   0.14286   0.02000  -0.04000   0.01429    0.00000   0.00000   0.00350    83   84    0      4
    85  -0.10000   0.09800   0.00000   0.01000    0.00000   0.00000   0.00200  -130   85   86      5
    86  -0.09000   0.09800   0.00000   0.01000    0.00000   0.00000   0.00200    85   86   87      5
    87  -0.08000   0.09800   0.00000   0.01000    0.00000   0.00000   0.00200    86   87   88      5
    88  -0.07000   0.09800   0.00000   0.01000    0.00000   0.00000   0.00200    87   88   89      5
    89  -0.06000   0.09800   0.00000   0.01000    0.00000   0.00000   0.00200    88   89   90      5
    90  -0.05000   0.09800   0.00000   0.01000    0.00000   0.00000   0.00200    89   90   91      5
    91  -0.04000   0.09800   0.00000   0.01000    0.00000   0.00000   0.00200    90   91   92      5
    92  -0.03000   0.09800   0.00000   0.01000    0.00000   0.00000   0.00200    91   92   93      5
    93  -0.02000   0.09800   0.00000   0.01000    0.00000   0.00000   0.00200    92   93   94      5
    94  -0.01000   0.09800   0.00000   0.01000    0.00000   0.00000   0.00200    93   94   95      5
    95   0.00000   0.09800   0.00000   0.01000    0.00000   0.00000   0.00200    94   95   96      5
    96   0.01000   0.09800   0.00000   0.01000    0.00000   0.00000   0.00200    95   96   97      5
    97   0.02000   0.09800   0.00000   0.01000    0.00000   0.00000   0.00200    96   97   98      5
    98   0.03000   0.09800   0.00000   0.01000    0.00000   0.00000   0.00200    97   98   99      5
    99   0.04000   0.09800   0.00000   0.01000    0.00000   0.00000   0.00200    98   99  100      5
   100   0.05000   0.09800   0.00000   0.01000    0.00000   0.00000   0.00200    99  100  101      5
   101   0.06000   0.09800   0.00000   0.01000    0.00000   0.00000   0.00200   100  101  102      5
   102   0.07000   0.09800   0.00000   0.01000    0.00000   0.00000   0.00200   101  102  103      5
   103   0.08000   0.09800   0.00000   0.01000    0.00000   0.00000   0.00200   102  103  104      5
   104   0.09000   0.09800   0.00000   0.01000    0.00000   0.00000   0.00200   103  104  105      5
   105   0.10000   0.09800   0.00000   0.01000    0.00000   0.00000   0.00200   104  105  127      5
   106  -0.10000   0.14200   0.00000   0.01000    0.00000   0.00000   0.00200   132  106  107      6
   107  -0.09000   0.14200   0.00000   0.01000    0.00000   0.00000   0.00200   106  107  108      6
   108  -0.08000   0.14200   0.00000   0.01000    0.00000   0.00000   0.00200   107  108  109      6
   109  -0.07000   0.14200   0.00000   0.01000    0.00000   0.00000   0.00200   108  109  110      6
   110  -0.06000   0.14200   0.00000   0.01000    0.00000   0.00000   0.00200   109  110  111      6
   111  -0.05000   0.14200   0.00000   0.01000    0.00000   0.00000   0.00200   110  111  112      6
   112  -0.04000   0.14200   0.00000   0.01000    0.00000   0.00000   0.00200   111  112  113      6
   113  -0.03000   0.14200   0.00000   0.01000    0.00000   0.00000   0.00200   112  113  114      6
   114  -0.02000   0.14200   0.00000   0.01000    0.00000   0.00000   0.00200   113  114  115      6
   115  -0.01000   0.14200   0.00000   0.01000    0.00000   0.00000   0.00200   114  115  116      6
   116   0.00000   0.14200   0.00000   0.01000    0.00000   0.00000   0.00200   115  116  117      6
   117   0.01000   0.14200   0.00000   0.01000    0.00000   0.00000   0.00200   116  117  118      6
   118   0.02000   0.14200   0.00000   0.01000    0.00000   0.00000   0.00200   117  118  119      6
   119   0.03000   0.14200   0.00000   0.01000    0.00000   0.00000   0.00200   118  119  120      6
   120   0.04000   0.14200   0.00000   0.01000    0.00000   0.00000   0.00200   119  120  121      6
   121   0.05000   0.14200   0.00000   0.01000    0.00000   0.00000   0.00200   120  121  122      6
   122   0.06000   0.14200   0.00000   0.01000    0.00000   0.00000   0.00200   121  122  123      6
   123   0.07000   0.14200   0.00000   0.01000    0.00000   0.00000   0.00200   122  123  124      6
   124   0.08000   0.14200   0.00000   0.01000    0.00000   0.00000   0.00200   123  124  125      6
   125   0.09000   0.14200   0.00000   0.01000    0.00000   0.00000   0.00200   124  125  126      6
   126   0.10000   0.14200   0.00000   0.01000    0.00000   0.00000   0.00200   125  126 -129      6
   127   0.10500   0.10533   0.00000   0.01467    0.00000  90.00000   0.00200   105  127  128      7
   128   0.10500   0.12000   0.00000   0.01467    0.00000  90.00000   0.00200   127  128  129      7
   129   0.10500   0.13467   0.00000   0.01467    0.00000  90.00000   0.00200   128  129 -126      7
   130  -0.10500   0.10533   0.00000   0.01467    0.00000  90.00000   0.00200   -85  130  131      8
   131  -0.10500   0.12000   0.00000   0.01467    0.00000  90.00000   0.00200   130  131  132      8
   132  -0.10500   0.13467   0.00000   0.01467    0.00000  90.00000   0.00200   131  132  106      8
   133  -0.10000   0.18000   0.00000   0.01000    0.00000   0.00000   0.00350     0  133  134      9
   134  -0.09000   0.18000   0.00000   0.01000    0.00000   0.00000   0.00350   133  134  135      9
   135  -0.08000   0.18000   0.00000   0.01000    0.00000   0.00000   0.00350   134  135  136      9
   136  -0.07000   0.18000   0.00000   0.01000    0.00000   0.00000   0.00350   135  136  137      9
   137  -0.06000   0.18000   0.00000   0.01000    0.00000   0.00000   0.00350   136  137  138      9
   138  -0.05000   0.18000   0.00000   0.01000    0.00000   0.00000   0.00350   137  138  139      9
   139  -0.04000   0.18000   0.00000   0.01000    0.00000   0.00000   0.00350   138  139  140      9
   140  -0.03000   0.18000   0.00000   0.01000    0.00000   0.00000   0.00350   139  140  141      9
   141  -0.02000   0.18000   0.00000   0.01000    0.00000   0.00000   0.00350   140  141  142      9
   142  -0.01000   0.18000   0.00000   0.01000    0.00000   0.00000   0.00350   141  142  143      9
   143   0.00000   0.18000   0.00000   0.01000    0.00000   0.00000   0.00350   142  143  144      9
   144   0.01000   0.18000   0.00000   0.01000    0.00000   0.00000   0.00350   143  144  145      9
   145   0.02000   0.18000   0.00000   0.01000    0.00000   0.00000   0.00350   144  145  146      9
   146   0.03000   0.18000   0.00000   0.01000    0.00000   0.00000   0.00350   145  146  147      9
   147   0.04000   0.18000   0.00000   0.01000    0.00000   0.00000   0.00350   146  147  148      9
   148   0.05000   0.18000   0.00000   0.01000    0.00000   0.00000   0.00350   147  148  149      9
   149   0.06000   0.18000   0.00000   0.01000    0.00000   0.00000   0.00350   148  149  150      9
   150   0.07000   0.18000   0.00000   0.01000    0.00000   0.00000   0.00350   149  150  151      9
   151   0.08000   0.18000   0.00000   0.01000    0.00000   0.00000   0.00350   150  151  152      9
   152   0.09000   0.18000   0.00000   0.01000    0.00000   0.00000   0.00350   151  152  153      9
   153   0.10000   0.18000   0.00000   0.01000    0.00000   0.00000   0.00350   152  153    0      9
   154  -0.10000   0.22000   0.00000   0.01000    0.00000   0.00000   0.00350     0  154  155     10
   155  -0.09000   0.22000   0.00000   0.01000    0.00000   0.00000   0.00350   154  155  156     10
   156  -0.08000   0.22000   0.00000   0.01000    0.00000   0.00000   0.00350   155  156  157     10
   157  -0.07000   0.22000   0.00000   0.01000    0.00000   0.00000   0.00350   156  157  158     10
   158  -0.06000   0.22000   0.00000   0.01000    0.00000   0.00000   0.00350   157  158  159     10
   159  -0.05000   0.22000   0.00000   0.01000    0.00000   0.00000   0.00350   158  159  160     10
   160  -0.04000   0.22000   0.00000   0.01000    0.00000   0.00000   0.00350   159  160  161     10
   161  -0.03000   0.22000   0.00000   0.01000    0.00000   0.00000   0.00350   160  161  162     10
   162  -0.02000   0.22000   0.00000   0.01000    0.00000   0.00000   0.00350   161  162  163     10
   163  -0.01000   0.22000   0.00000   0.01000    0.00000   0.00000   0.00350   162  163  164     10
   164   0.00000   0.22000   0.00000   0.01000    0.00000   0.00000   0.00350   163  164  165     10
   165   0.01000   0.22000   0.00000   0.01000    0.00000   0.00000   0.00350   164  165  166     10
   166   0.02000   0.22000   0.00000   0.01000    0.00000   0.00000   0.00350   165  166  167     10
   167   0.03000   0.22000   0.00000   0.01000    0.00000   0.00000   0.00350   166  167  168     10
   168   0.04000   0.22000   0.00000   0.01000    0.00000   0.00000   0.00350   167  168  169     10
   169   0.05000   0.22000   0.00000   0.01000    0.00000   0.00000   0.00350   168  169  170     10
   170   0.06000   0.22000   0.00000   0.01000    0.00000   0.00000   0.00350   169  170  171     10
   171   0.07000   0.22000   0.00000   0.01000    0.00000   0.00000   0.00350   170  171  172     10
   172   0.08000   0.22000   0.00000   0.01000    0.00000   0.00000   0.00350   171  172  173     10
   173   0.09000   0.22000   0.00000   0.01000    0.00000   0.00000   0.00350   172  173  174     10
   174   0.10000   0.22000   0.00000   0.01000    0.00000   0.00000   0.00350   173  174    0     10
   175  -0.10000   0.27000   0.00000   0.01000    0.00000   0.00000   0.00350     0  175  176     11
   176  -0.09000   0.27000   0.00000   0.01000    0.00000   0.00000   0.00350   175  176  177     11
   177  -0.08000   0.27000   0.00000   0.01000    0.00000   0.00000   0.00350   176  177  178     11
   178  -0.07000   0.27000   0.00000   0.01000    0.00000   0.00000   0.00350   177  178  179     11
   179  -0.06000   0.27000   0.00000   0.01000    0.00000   0.00000   0.00350   178  179  180     11
   180  -0.05000   0.27000   0.00000   0.01000    0.00000   0.00000   0.00350   179  180  181     11
   181  -0.04000   0.27000   0.00000   0.01000    0.00000   0.00000   0.00350   180  181  182     11
   182  -0.03000   0.27000   0.00000   0.01000    0.00000   0.00000   0.00350   181  182  183     11
   183  -0.02000   0.27000   0.00000   0.01000    0.00000   0.00000   0.00350   182  183  184     11
   184  -0.01000   0.27000   0.00000   0.01000    0.00000   0.00000   0.00350   183  184  185     11
   185   0.00000   0.27000   0.00000   0.01000    0.00000   0.00000   0.00350   184  185  186     11
   186   0.01000   0.27000   0.00000   0.01000    0.00000   0.00000   0.00350   185  186  187     11
   187   0.02000   0.27000   0.00000   0.01000    0.00000   0.00000   0.00350   186  187  188     11
   188   0.03000   0.27000   0.00000   0.01000    0.00000   0.00000   0.00350   187  188  189     11
   189   0.04000   0.27000   0.00000   0.01000    0.00000   0.00000   0.00350   188  189  190     11
   190   0.05000   0.27000   0.00000   0.01000    0.00000   0.00000   0.00350   189  190  191     11
   191   0.06000   0.27000   0.00000   0.01000    0.00000   0.00000   0.00350   190  191  192     11
   192   0.07000   0.27000   0.00000   0.01000    0.00000   0.00000   0.00350   191  192  193     11
   193   0.08000   0.27000   0.00000   0.01000    0.00000   0.00000   0.00350   192  193  194     11
   194   0.09000   0.27000   0.00000   0.01000    0.00000   0.00000   0.00350   193  194  195     11
   195   0.10000   0.27000   0.00000   0.01000    0.00000   0.00000   0.00350   194  195    0     11
   196  -0.10000   0.32000   0.00000   0.01000    0.00000   0.00000   0.00350     0  196  197     12
   197  -0.09000   0.32000   0.00000   0.01000    0.00000   0.00000   0.00350   196  197  198     12
   198  -0.08000   0.32000   0.00000   0.01000    0.00000   0.00000   0.00350   197  198  199     12
   199  -0.07000   0.32000   0.00000   0.01000    0.00000   0.00000   0.00350   198  199  200     12
   200  -0.06000   0.32000   0.00000   0.01000    0.00000   0.00000   0.00350   199  200  201     12
   201  -0.05000   0.32000   0.00000   0.01000    0.00000   0.00000   0.00350   200  201  202     12
   202  -0.04000   0.32000   0.00000   0.01000    0.00000   0.00000   0.00350   201  202  203     12
   203  -0.03000   0.32000   0.00000   0.01000    0.00000   0.00000   0.00350   202  203  204     12
   204  -0.02000   0.32000   0.00000   0.01000    0.00000   0.00000   0.00350   203  204  205     12
   205  -0.01000   0.32000   0.00000   0.01000    0.00000   0.00000   0.00350   204  205  206     12
   206   0.00000   0.32000   0.00000   0.01000    0.00000   0.00000   0.00350   205  206  207     12
   207   0.01000   0.32000   0.00000   0.01000    0.00000   0.00000   0.00350   206  207  208     12
   208   0.02000   0.32000   0.00000   0.01000    0.00000   0.00000   0.00350   207  208  209     12
   209   0.03000   0.32000   0.00000   0.01000    0.00000   0.00000   0.00350   208  209  210     12
   210   0.04000   0.32000   0.00000   0.01000    0.00000   0.00000   0.00350   209  210  211     12
   211   0.05000   0.32000   0.00000   0.01000    0.00000   0.00000   0.00350   210  211  212     12
   212   0.06000   0.32000   0.00000   0.01000    0.00000   0.00000   0.00350   211  212  213     12
   213   0.07000   0.32000   0.00000   0.01000    0.00000   0.00000   0.00350   212  213  214     12
   214   0.08000   0.32000   0.00000   0.01000    0.00000   0.00000   0.00350   213  214  215     12
   215   0.09000   0.32000   0.00000   0.01000    0.00000   0.00000   0.00350   214  215  216     12
   216   0.10000   0.32000   0.00000   0.01000    0.00000   0.00000   0.00350   215  216    0     12
   217  -0.10000   0.38600   0.00000   0.01000    0.00000   0.00000   0.00350     0  217  218     13
   218  -0.09000   0.38600   0.00000   0.01000    0.00000   0.00000   0.00350   217  218  219     13
   219  -0.08000   0.38600   0.00000   0.01000    0.00000   0.00000   0.00350   218  219  220     13
   220  -0.07000   0.38600   0.00000   0.01000    0.00000   0.00000   0.00350   219  220  221     13
   221  -0.06000   0.38600   0.00000   0.01000    0.00000   0.00000   0.00350   220  221  222     13
   222  -0.05000   0.38600   0.00000   0.01000    0.00000   0.00000   0.00350   221  222  223     13
   223  -0.04000   0.38600   0.00000   0.01000    0.00000   0.00000   0.00350   222  223  224     13
   224  -0.03000   0.38600   0.00000   0.01000    0.00000   0.00000   0.00350   223  224  225     13
   225  -0.02000   0.38600   0.00000   0.01000    0.00000   0.00000   0.00350   224  225  226     13
   226  -0.01000   0.38600   0.00000   0.01000    0.00000   0.00000   0.00350   225  226  227     13
   227   0.00000   0.38600   0.00000   0.01000    0.00000   0.00000   0.00350   226  227  228     13
   228   0.01000   0.38600   0.00000   0.01000    0.00000   0.00000   0.00350   227  228  229     13
   229   0.02000   0.38600   0.00000   0.01000    0.00000   0.00000   0.00350   228  229  230     13
   230   0.03000   0.38600   0.00000   0.01000    0.00000   0.00000   0.00350   229  230  231     13
   231   0.04000   0.38600   0.00000   0.01000    0.00000   0.00000   0.00350   230  231  232     13
   232   0.05000   0.38600   0.00000   0.01000    0.00000   0.00000   0.00350   231  232  233     13
   233   0.06000   0.38600   0.00000   0.01000    0.00000   0.00000   0.00350   232  233  234     13
   234   0.07000   0.38600   0.00000   0.01000    0.00000   0.00000   0.00350   233  234  235     13
   235   0.08000   0.38600   0.00000   0.01000    0.00000   0.00000   0.00350   234  235  236     13
   236   0.09000   0.38600   0.00000   0.01000    0.00000   0.00000   0.00350   235  236  237     13
   237   0.10000   0.38600   0.00000   0.01000    0.00000   0.00000   0.00350   236  237    0     13
   238  -0.10000   0.45500   0.00000   0.01000    0.00000   0.00000   0.00350     0  238  239     14
   239  -0.09000   0.45500   0.00000   0.01000    0.00000   0.00000   0.00350   238  239  240     14
   240  -0.08000   0.45500   0.00000   0.01000    0.00000   0.00000   0.00350   239  240  241     14
   241  -0.07000   0.45500   0.00000   0.01000    0.00000   0.00000   0.00350   240  241  242     14
   242  -0.06000   0.45500   0.00000   0.01000    0.00000   0.00000   0.00350   241  242  243     14
   243  -0.05000   0.45500   0.00000   0.01000    0.00000   0.00000   0.00350   242  243  244     14
   244  -0.04000   0.45500   0.00000   0.01000    0.00000   0.00000   0.00350   243  244  245     14
   245  -0.03000   0.45500   0.00000   0.01000    0.00000   0.00000   0.00350   244  245  246     14
   246  -0.02000   0.45500   0.00000   0.01000    0.00000   0.00000   0.00350   245  246  247     14
   247  -0.01000   0.45500   0.00000   0.01000    0.00000   0.00000   0.00350   246  247  248     14
   248   0.00000   0.45500   0.00000   0.01000    0.00000   0.00000   0.00350   247  248  249     14
   249   0.01000   0.45500   0.00000   0.01000    0.00000   0.00000   0.00350   248  249  250     14
   250   0.02000   0.45500   0.00000   0.01000    0.00000   0.00000   0.00350   249  250  251     14
   251   0.03000   0.45500   0.00000   0.01000    0.00000   0.00000   0.00350   250  251  252     14
   252   0.04000   0.45500   0.00000   0.01000    0.00000   0.00000   0.00350   251  252  253     14
   253   0.05000   0.45500   0.00000   0.01000    0.00000   0.00000   0.00350   252  253  254     14
   254   0.06000   0.45500   0.00000   0.01000    0.00000   0.00000   0.00350   253  254  255     14
   255   0.07000   0.45500   0.00000   0.01000    0.00000   0.00000   0.00350   254  255  256     14
   256   0.08000   0.45500   0.00000   0.01000    0.00000   0.00000   0.00350   255  256  257     14
   257   0.09000   0.45500   0.00000   0.01000    0.00000   0.00000   0.00350   256  257  258     14
   258   0.10000   0.45500   0.00000   0.01000    0.00000   0.00000   0.00350   257  258    0     14
   259   0.35714   0.02000   0.04000   0.01429    0.00000   0.00000   0.00350     0  259  260     15
   260   0.37143   0.02000   0.04000   0.01429    0.00000   0.00000   0.00350   259  260  261     15
   261   0.38571   0.02000   0.04000   0.01429    0.00000   0.00000   0.00350   260  261  262     15
   262   0.40000   0.02000   0.04000   0.01429    0.00000   0.00000   0.00350   261  262  263     15
   263   0.41429   0.02000   0.04000   0.01429    0.00000   0.00000   0.00350   262  263  264     15
   264   0.42857   0.02000   0.04000   0.01429    0.00000   0.00000   0.00350   263  264  265     15
   265   0.44286   0.02000   0.04000   0.01429    0.00000   0.00000   0.00350   264  265  266     15
   266   0.45714   0.02000   0.04000   0.01429    0.00000   0.00000   0.00350   265  266  267     15
   267   0.47143   0.02000   0.04000   0.01429    0.00000   0.00000   0.00350   266  267  268     15
   268   0.48571   0.02000   0.04000   0.01429    0.00000   0.00000   0.00350   267  268  269     15
   269   0.50000   0.02000   0.04000   0.01429    0.00000   0.00000   0.00350   268  269  270     15
   270   0.51429   0.02000   0.04000   0.01429    0.00000   0.00000   0.00350   269  270  271     15
   271   0.52857   0.02000   0.04000   0.01429    0.00000   0.00000   0.00350   270  271  272     15
   272   0.54286   0.02000   0.04000   0.01429    0.00000   0.00000   0.00350   271  272  273     15
   273   0.55714   0.02000   0.04000   0.01429    0.00000   0.00000   0.00350   272  273  274     15
   274   0.57143   0.02000   0.04000   0.01429    0.00000   0.00000   0.00350   273  274  275     15
   275   0.58571   0.02000   0.04000   0.01429    0.00000   0.00000   0.00350   274  275  276     15
   276   0.60000   0.02000   0.04000   0.01429    0.00000   0.00000   0.00350   275  276  277     15
   277   0.61429   0.02000   0.04000   0.01429    0.00000   0.00000   0.00350   276  277  278     15
   278   0.62857   0.02000   0.04000   0.01429    0.00000   0.00000   0.00350   277  278  279     15
   279   0.64286   0.02000   0.04000   0.01429    0.00000   0.00000   0.00350   278  279    0     15
   280   0.35714   0.00000   0.01000   0.01429    0.00000   0.00000   0.00350     0  280  281     16
   281   0.37143   0.00000   0.01000   0.01429    0.00000   0.00000   0.00350   280  281  282     16
   282   0.38571   0.00000   0.01000   0.01429    0.00000   0.00000   0.00350   281  282  283     16
   283   0.40000   0.00000   0.01000   0.01429    0.00000   0.00000   0.00350   282  283  284     16
   284   0.41429   0.00000   0.01000   0.01429    0.00000   0.00000   0.00350   283  284  285     16
   285   0.42857   0.00000   0.01000   0.01429    0.00000   0.00000   0.00350   284  285  286     16
   286   0.44286   0.00000   0.01000   0.01429    0.00000   0.00000   0.00350   285  286  287     16
   287   0.45714   0.00000   0.01000   0.01429    0.00000   0.00000   0.00350   286  287  288     16
   288   0.47143   0.00000   0.01000   0.01429    0.00000   0.00000   0.00350   287  288  289     16
   289   0.48571   0.00000   0.01000   0.01429    0.00000   0.00000   0.00350   288  289  290     16
   290   0.50000   0.00000   0.01000   0.01429    0.00000   0.00000   0.00350   289  290  291     16
   291   0.51429   0.00000   0.01000   0.01429    0.00000   0.00000   0.00350   290  291  292     16
   292   0.52857   0.00000   0.01000   0.01429    0.00000   0.00000   0.00350   291  292  293     16
   293   0.54286   0.00000   0.01000   0.01429    0.00000   0.00000   0.00350   292  293  294     16
   294   0.55714   0.00000   0.01000   0.01429    0.00000   0.00000   0.00350   293  294  295     16
   295   0.57143   0.00000   0.01000   0.01429    0.00000   0.00000   0.00350   294  295  296     16
   296   0.58571   0.00000   0.01000   0.01429    0.00000   0.00000   0.00350   295  296  297     16
   297   0.60000   0.00000   0.01000   0.01429    0.00000   0.00000   0.00350   296  297  298     16
   298   0.61429   0.00000   0.01000   0.01429    0.00000   0.00000   0.00350   297  298  299     16
   299   0.62857   0.00000   0.01000   0.01429    0.00000   0.00000   0.00350   298  299  300     16
   300   0.64286   0.00000   0.01000   0.01429    0.00000   0.00000   0.00350   299  300    0     16
   301   0.35714   0.00000  -0.01000   0.01429    0.00000   0.00000   0.00350     0  301  302     17
   302   0.37143   0.00000  -0.01000   0.01429    0.00000   0.00000   0.00350   301  302  303     17
   303   0.38571   0.00000  -0.01000   0.01429    0.00000   0.00000   0.00350   302  303  304     17
   304   0.40000   0.00000  -0.01000   0.01429    0.00000   0.00000   0.00350   303  304  305     17
   305   0.41429   0.00000  -0.01000   0.01429    0.00000   0.00000   0.00350   304  305  306     17
   306   0.42857   0.00000  -0.01000   0.01429    0.00000   0.00000   0.00350   305  306  307     17
   307   0.44286   0.00000  -0.01000   0.01429    0.00000   0.00000   0.00350   306  307  308     17
   308   0.45714   0.00000  -0.01000   0.01429    0.00000   0.00000   0.00350   307  308  309     17
   309   0.47143   0.00000  -0.01000   0.01429    0.00000   0.00000   0.00350   308  309  310     17
   310   0.48571   0.00000  -0.01000   0.01429    0.00000   0.00000   0.00350   309  310  311     17
   311   0.50000   0.00000  -0.01000   0.01429    0.00000   0.00000   0.00350   310  311  312     17
   312   0.51429   0.00000  -0.01000   0.01429    0.00000   0.00000   0.00350   311  312  313     17
   313   0.52857   0.00000  -0.01000   0.01429    0.00000   0.00000   0.00350   312  313  314     17
   314   0.54286   0.00000  -0.01000   0.01429    0.00000   0.00000   0.00350   313  314  315     17
   315   0.55714   0.00000  -0.01000   0.01429    0.00000   0.00000   0.00350   314  315  316     17
   316   0.57143   0.00000  -0.01000   0.01429    0.00000   0.00000   0.00350   315  316  317     17
   317   0.58571   0.00000  -0.01000   0.01429    0.00000   0.00000   0.00350   316  317  318     17
   318   0.60000   0.00000  -0.01000   0.01429    0.00000   0.00000   0.00350   317  318  319     17
   319   0.61429   0.00000  -0.01000   0.01429    0.00000   0.00000   0.00350   318  319  320     17
   320   0.62857   0.00000  -0.01000   0.01429    0.00000   0.00000   0.00350   319  320  321     17
   321   0.64286   0.00000  -0.01000   0.01429    0.00000   0.00000   0.00350   320  321    0     17
   322   0.35714   0.02000  -0.04000   0.01429    0.00000   0.00000   0.00350     0  322  323     18
   323   0.37143   0.02000  -0.04000   0.01429    0.00000   0.00000   0.00350   322  323  324     18
   324   0.38571   0.02000  -0.04000   0.01429    0.00000   0.00000   0.00350   323  324  325     18
   325   0.40000   0.02000  -0.04000   0.01429    0.00000   0.00000   0.00350   324  325  326     18
   326   0.41429   0.02000  -0.04000   0.01429    0.00000   0.00000   0.00350   325  326  327     18
   327   0.42857   0.02000  -0.04000   0.01429    0.00000   0.00000   0.00350   326  327  328     18
   328   0.44286   0.02000  -0.04000   0.01429    0.00000   0.00000   0.00350   327  328  329     18
   329   0.45714   0.02000  -0.04000   0.01429    0.00000   0.00000   0.00350   328  329  330     18
   330   0.47143   0.02000  -0.04000   0.01429    0.00000   0.00000   0.00350   329  330  331     18
   331   0.48571   0.02000  -0.04000   0.01429    0.00000   0.00000   0.00350   330  331  332     18
   332   0.50000   0.02000  -0.04000   0.01429    0.00000   0.00000   0.00350   331  332  333     18
   333   0.51429   0.02000  -0.04000   0.01429    0.00000   0.00000   0.00350   332  333  334     18
   334   0.52857   0.02000  -0.04000   0.01429    0.00000   0.00000   0.00350   333  334  335     18
   335   0.54286   0.02000  -0.04000   0.01429    0.00000   0.00000   0.00350   334  335  336     18
   336   0.55714   0.02000  -0.04000   0.01429    0.00000   0.00000   0.00350   335  336  337     18
   337   0.57143   0.02000  -0.04000   0.01429    0.00000   0.00000   0.00350   336  337  338     18
   338   0.58571   0.02000  -0.04000   0.01429    0.00000   0.00000   0.00350   337  338  339     18
   339   0.60000   0.02000  -0.04000   0.01429    0.00000   0.00000   0.00350   338  339  340     18
   340   0.61429   0.02000  -0.04000   0.01429    0.00000   0.00000   0.00350   339  340  341     18
   341   0.62857   0.02000  -0.04000   0.01429    0.00000   0.00000   0.00350   340  341  342     18
   342   0.64286   0.02000  -0.04000   0.01429    0.00000   0.00000   0.00350   341  342    0     18
   343   0.40000   0.09800   0.00000   0.01000    0.00000   0.00000   0.00200  -388  343  344     19
   344   0.41000   0.09800   0.00000   0.01000    0.00000   0.00000   0.00200   343  344  345     19
   345   0.42000   0.09800   0.00000   0.01000    0.00000   0.00000   0.00200   344  345  346     19
   346   0.43000   0.09800   0.00000   0.01000    0.00000   0.00000   0.00200   345  346  347     19
   347   0.44000   0.09800   0.00000   0.01000    0.00000   0.00000   0.00200   346  347  348     19
   348   0.45000   0.09800   0.00000   0.01000    0.00000   0.00000   0.00200   347  348  349     19
   349   0.46000   0.09800   0.00000   0.01000    0.00000   0.00000   0.00200   348  349  350     19
   350   0.47000   0.09800   0.00000   0.01000    0.00000   0.00000   0.00200   349  350  351     19
   351   0.48000   0.09800   0.00000   0.01000    0.00000   0.00000   0.00200   350  351  352     19
   352   0.49000   0.09800   0.00000   0.01000    0.00000   0.00000   0.00200   351  352  353     19
   353   0.50000   0.09800   0.00000   0.01000    0.00000   0.00000   0.00200   352  353  354     19
   354   0.51000   0.09800   0.00000   0.01000    0.00000   0.00000   0.00200   353  354  355     19
   355   0.52000   0.09800   0.00000   0.01000    0.00000   0.00000   0.00200   354  355  356     19
   356   0.53000   0.09800   0.00000   0.01000    0.00000   0.00000   0.00200   355  356  357     19
   357   0.54000   0.09800   0.00000   0.01000    0.00000   0.00000   0.00200   356  357  358     19
   358   0.55000   0.09800   0.00000   0.01000    0.00000   0.00000   0.00200   357  358  359     19
   359   0.56000   0.09800   0.00000   0.01000    0.00000   0.00000   0.00200   358  359  360     19
   360   0.57000   0.09800   0.00000   0.01000    0.00000   0.00000   0.00200   359  360  361     19
   361   0.58000   0.09800   0.00000   0.01000    0.00000   0.00000   0.00200   360  361  362     19
   362   0.59000   0.09800   0.00000   0.01000    0.00000   0.00000   0.00200   361  362  363     19
   363   0.60000   0.09800   0.00000   0.01000    0.00000   0.00000   0.00200   362  363  385     19
   364   0.40000   0.14200   0.00000   0.01000    0.00000   0.00000   0.00200   390  364  365     20
   365   0.41000   0.14200   0.00000   0.01000    0.00000   0.00000   0.00200   364  365  366     20
   366   0.42000   0.14200   0.00000   0.01000    0.00000   0.00000   0.00200   365  366  367     20
   367   0.43000   0.14200   0.00000   0.01000    0.00000   0.00000   0.00200   366  367  368     20
   368   0.44000   0.14200   0.00000   0.01000    0.00000   0.00000   0.00200   367  368  369     20
   369   0.45000   0.14200   0.00000   0.01000    0.00000   0.00000   0.00200   368  369  370     20
   370   0.46000   0.14200   0.00000   0.01000    0.00000   0.00000   0.00200   369  370  371     20
   371   0.47000   0.14200   0.00000   0.01000    0.00000   0.00000   0.00200   370  371  372     20
   372   0.48000   0.14200   0.00000   0.01000    0.00000   0.00000   0.00200   371  372  373     20
   373   0.49000   0.14200   0.00000   0.01000    0.00000   0.00000   0.00200   372  373  374     20
   374   0.50000   0.14200   0.00000   0.01000    0.00000   0.00000   0.00200   373  374  375     20
   375   0.51000   0.14200   0.00000   0.01000    0.00000   0.00000   0.00200   374  375  376     20
   376   0.52000   0.14200   0.00000   0.01000    0.00000   0.00000   0.00200   375  376  377     20
   377   0.53000   0.14200   0.00000   0.01000    0.00000   0.00000   0.00200   376  377  378     20
   378   0.54000   0.14200   0.00000   0.01000    0.00000   0.00000   0.00200   377  378  379     20
   379   0.55000   0.14200   0.00000   0.01000    0.00000   0.00000   0.00200   378  379  380     20
   380   0.56000   0.14200   0.00000   0.01000    0.00000   0.00000   0.00200   379  380  381     20
   381   0.57000   0.14200   0.00000   0.01000    0.00000   0.00000   0.00200   380  381  382     20
   382   0.58000   0.14200   0.00000   0.01000    0.00000   0.00000   0.00200   381  382  383     20
   383   0.59000   0.14200   0.00000   0.01000    0.00000   0.00000   0.00200   382  383  384     20
   384   0.60000   0.14200   0.00000   0.01000    0.00000   0.00000   0.00200   383  384 -387     20
   385   0.60500   0.10533   0.00000   0.01467    0.00000  90.00000   0.00200   363  385  386     21
   386   0.60500   0.12000   0.00000   0.01467    0.00000  90.00000   0.00200   385  386  387     21
   387   0.60500   0.13467   0.00000   0.01467    0.00000  90.00000   0.00200   386  387 -384     21
   388   0.39500   0.10533   0.00000   0.01467    0.00000  90.00000   0.00200  -343  388  389     22
   389   0.39500   0.12000   0.00000   0.01467    0.00000  90.00000   0.00200   388  389  390     22
   390   0.39500   0.13467   0.00000   0.01467    0.00000  90.00000   0.00200   389  390  364     22
   391   0.40000   0.18000   0.00000   0.01000    0.00000   0.00000   0.00350     0  391  392     23
   392   0.41000   0.18000   0.00000   0.01000    0.00000   0.00000   0.00350   391  392  393     23
   393   0.42000   0.18000   0.00000   0.01000    0.00000   0.00000   0.00350   392  393  394     23
   394   0.43000   0.18000   0.00000   0.01000    0.00000   0.00000   0.00350   393  394  395     23
   395   0.44000   0.18000   0.00000   0.01000    0.00000   0.00000   0.00350   394  395  396     23
   396   0.45000   0.18000   0.00000   0.01000    0.00000   0.00000   0.00350   395  396  397     23
   397   0.46000   0.18000   0.00000   0.01000    0.00000   0.00000   0.00350   396  397  398     23
   398   0.47000   0.18000   0.00000   0.01000    0.00000   0.00000   0.00350   397  398  399     23
   399   0.48000   0.18000   0.00000   0.01000    0.00000   0.00000   0.00350   398  399  400     23
   400   0.49000   0.18000   0.00000   0.01000    0.00000   0.00000   0.00350   399  400  401     23
   401   0.50000   0.18000   0.00000   0.01000    0.00000   0.00000   0.00350   400  401  402     23
   402   0.51000   0.18000   0.00000   0.01000    0.00000   0.00000   0.00350   401  402  403     23
   403   0.52000   0.18000   0.00000   0.01000    0.00000   0.00000   0.00350   402  403  404     23
   404   0.53000   0.18000   0.00000   0.01000    0.00000   0.00000   0.00350   403  404  405     23
   405   0.54000   0.18000   0.00000   0.01000    0.00000   0.00000   0.00350   404  405  406     23
   406   0.55000   0.18000   0.00000   0.01000    0.00000   0.00000   0.00350   405  406  407     23
   407   0.56000   0.18000   0.00000   0.01000    0.00000   0.00000   0.00350   406  407  408     23
   408   0.57000   0.18000   0.00000   0.01000    0.00000   0.00000   0.00350   407  408  409     23
   409   0.58000   0.18000   0.00000   0.01000    0.00000   0.00000   0.00350   408  409  410     23
   410   0.59000   0.18000   0.00000   0.01000    0.00000   0.00000   0.00350   409  410  411     23
   411   0.60000   0.18000   0.00000   0.01000    0.00000   0.00000   0.00350   410  411    0     23
   412   0.40000   0.22000   0.00000   0.01000    0.00000   0.00000   0.00350     0  412  413     24
   413   0.41000   0.22000   0.00000   0.01000    0.00000   0.00000   0.00350   412  413  414     24
   414   0.42000   0.22000   0.00000   0.01000    0.00000   0.00000   0.00350   413  414  415     24
   415   0.43000   0.22000   0.00000   0.01000    0.00000   0.00000   0.00350   414  415  416     24
   416   0.44000   0.22000   0.00000   0.01000    0.00000   0.00000   0.00350   415  416  417     24
   417   0.45000   0.22000   0.00000   0.01000    0.00000   0.00000   0.00350   416  417  418     24
   418   0.46000   0.22000   0.00000   0.01000    0.00000   0.00000   0.00350   417  418  419     24
   419   0.47000   0.22000   0.00000   0.01000    0.00000   0.00000   0.00350   418  419  420     24
   420   0.48000   0.22000   0.00000   0.01000    0.00000   0.00000   0.00350   419  420  421     24
   421   0.49000   0.22000   0.00000   0.01000    0.00000   0.00000   0.00350   420  421  422     24
   422   0.50000   0.22000   0.00000   0.01000    0.00000   0.00000   0.00350   421  422  423     24
   423   0.51000   0.22000   0.00000   0.01000    0.00000   0.00000   0.00350   422  423  424     24
   424   0.52000   0.22000   0.00000   0.01000    0.00000   0.00000   0.00350   423  424  425     24
   425   0.53000   0.22000   0.00000   0.01000    0.00000   0.00000   0.00350   424  425  426     24
   426   0.54000   0.22000   0.00000   0.01000    0.00000   0.00000   0.00350   425  426  427     24
   427   0.55000   0.22000   0.00000   0.01000    0.00000   0.00000   0.00350   426  427  428     24
   428   0.56000   0.22000   0.00000   0.01000    0.00000   0.00000   0.00350   427  428  429     24
   429   0.57000   0.22000   0.00000   0.01000    0.00000   0.00000   0.00350   428  429  430     24
   430   0.58000   0.22000   0.00000   0.01000    0.00000   0.00000   0.00350   429  430  431     24
   431   0.59000   0.22000   0.00000   0.01000    0.00000   0.00000   0.00350   430  431  432     24
   432   0.60000   0.22000   0.00000   0.01000    0.00000   0.00000   0.00350   431  432    0     24
   433   0.40000   0.27000   0.00000   0.01000    0.00000   0.00000   0.00350     0  433  434     25
   434   0.41000   0.27000   0.00000   0.01000    0.00000   0.00000   0.00350   433  434  435     25
   435   0.42000   0.27000   0.00000   0.01000    0.00000   0.00000   0.00350   434  435  436     25
   436   0.43000   0.27000   0.00000   0.01000    0.00000   0.00000   0.00350   435  436  437     25
   437   0.44000   0.27000   0.00000   0.01000    0.00000   0.00000   0.00350   436  437  438     25
   438   0.45000   0.27000   0.00000   0.01000    0.00000   0.00000   0.00350   437  438  439     25
   439   0.46000   0.27000   0.00000   0.01000    0.00000   0.00000   0.00350   438  439  440     25
   440   0.47000   0.27000   0.00000   0.01000    0.00000   0.00000   0.00350   439  440  441     25
   441   0.48000   0.27000   0.00000   0.01000    0.00000   0.00000   0.00350   440  441  442     25
   442   0.49000   0.27000   0.00000   0.01000    0.00000   0.00000   0.00350   441  442  443     25
   443   0.50000   0.27000   0.00000   0.01000    0.00000   0.00000   0.00350   442  443  444     25
   444   0.51000   0.27000   0.00000   0.01000    0.00000   0.00000   0.00350   443  444  445     25
   445   0.52000   0.27000   0.00000   0.01000    0.00000   0.00000   0.00350   444  445  446     25
   446   0.53000   0.27000   0.00000   0.01000    0.00000   0.00000   0.00350   445  446  447     25
   447   0.54000   0.27000   0.00000   0.01000    0.00000   0.00000   0.00350   446  447  448     25
   448   0.55000   0.27000   0.00000   0.01000    0.00000   0.00000   0.00350   447  448  449     25
   449   0.56000   0.27000   0.00000   0.01000    0.00000   0.00000   0.00350   448  449  450     25
   450   0.57000   0.27000   0.00000   0.01000    0.00000   0.00000   0.00350   449  450  451     25
   451   0.58000   0.27000   0.00000   0.01000    0.00000   0.00000   0.00350   450  451  452     25
   452   0.59000   0.27000   0.00000   0.01000    0.00000   0.00000   0.00350   451  452  453     25
   453   0.60000   0.27000   0.00000   0.01000    0.00000   0.00000   0.00350   452  453    0     25
   454   0.40000   0.32000   0.00000   0.01000    0.00000   0.00000   0.00350     0  454  455     26
   455   0.41000   0.32000   0.00000   0.01000    0.00000   0.00000   0.00350   454  455  456     26
   456   0.42000   0.32000   0.00000   0.01000    0.00000   0.00000   0.00350   455  456  457     26
   457   0.43000   0.32000   0.00000   0.01000    0.00000   0.00000   0.00350   456  457  458     26
   458   0.44000   0.32000   0.00000   0.01000    0.00000   0.00000   0.00350   457  458  459     26
   459   0.45000   0.32000   0.00000   0.01000    0.00000   0.00000   0.00350   458  459  460     26
   460   0.46000   0.32000   0.00000   0.01000    0.00000   0.00000   0.00350   459  460  461     26
   461   0.47000   0.32000   0.00000   0.01000    0.00000   0.00000   0.00350   460  461  462     26
   462   0.48000   0.32000   0.00000   0.01000    0.00000   0.00000   0.00350   461  462  463     26
   463   0.49000   0.32000   0.00000   0.01000    0.00000   0.00000   0.00350   462  463  464     26
   464   0.50000   0.32000   0.00000   0.01000    0.00000   0.00000   0.00350   463  464  465     26
   465   0.51000   0.32000   0.00000   0.01000    0.00000   0.00000   0.00350   464  465  466     26
   466   0.52000   0.32000   0.00000   0.01000    0.00000   0.00000   0.00350   465  466  467     26
   467   0.53000   0.32000   0.00000   0.01000    0.00000   0.00000   0.00350   466  467  468     26
   468   0.54000   0.32000   0.00000   0.01000    0.00000   0.00000   0.00350   467  468  469     26
   469   0.55000   0.32000   0.00000   0.01000    0.00000   0.00000   0.00350   468  469  470     26
   470   0.56000   0.32000   0.00000   0.01000    0.00000   0.00000   0.00350   469  470  471     26
   471   0.57000   0.32000   0.00000   0.01000    0.00000   0.00000   0.00350   470  471  472     26
   472   0.58000   0.32000   0.00000   0.01000    0.00000   0.00000   0.00350   471  472  473     26
   473   0.59000   0.32000   0.00000   0.01000    0.00000   0.00000   0.00350   472  473  474     26
   474   0.60000   0.32000   0.00000   0.01000    0.00000   0.00000   0.00350   473  474    0     26
   475   0.40000   0.38600   0.00000   0.01000    0.00000   0.00000   0.00350     0  475  476     27
   476   0.41000   0.38600   0.00000   0.01000    0.00000   0.00000   0.00350   475  476  477     27
   477   0.42000   0.38600   0.00000   0.01000    0.00000   0.00000   0.00350   476  477  478     27
   478   0.43000   0.38600   0.00000   0.01000    0.00000   0.00000   0.00350   477  478  479     27
   479   0.44000   0.38600   0.00000   0.01000    0.00000   0.00000   0.00350   478  479  480     27
   480   0.45000   0.38600   0.00000   0.01000    0.00000   0.00000   0.00350   479  480  481     27
   481   0.46000   0.38600   0.00000   0.01000    0.00000   0.00000   0.00350   480  481  482     27
   482   0.47000   0.38600   0.00000   0.01000    0.00000   0.00000   0.00350   481  482  483     27
   483   0.48000   0.38600   0.00000   0.01000    0.00000   0.00000   0.00350   482  483  484     27
   484   0.49000   0.38600   0.00000   0.01000    0.00000   0.00000   0.00350   483  484  485     27
   485   0.50000   0.38600   0.00000   0.01000    0.00000   0.00000   0.00350   484  485  486     27
   486   0.51000   0.38600   0.00000   0.01000    0.00000   0.00000   0.00350   485  486  487     27
   487   0.52000   0.38600   0.00000   0.01000    0.00000   0.00000   0.00350   486  487  488     27
   488   0.53000   0.38600   0.00000   0.01000    0.00000   0.00000   0.00350   487  488  489     27
   489   0.54000   0.38600   0.00000   0.01000    0.00000   0.00000   0.00350   488  489  490     27
   490   0.55000   0.38600   0.00000   0.01000    0.00000   0.00000   0.00350   489  490  491     27
   491   0.56000   0.38600   0.00000   0.01000    0.00000   0.00000   0.00350   490  491  492     27
   492   0.57000   0.38600   0.00000   0.01000    0.00000   0.00000   0.00350   491  492  493     27
   493   0.58000   0.38600   0.00000   0.01000    0.00000   0.00000   0.00350   492  493  494     27
   494   0.59000   0.38600   0.00000   0.01000    0.00000   0.00000   0.00350   493  494  495     27
   495   0.60000   0.38600   0.00000   0.01000    0.00000   0.00000   0.00350   494  495    0     27
   496   0.40000   0.45500   0.00000   0.01000    0.00000   0.00000   0.00350     0  496  497     28
   497   0.41000   0.45500   0.00000   0.01000    0.00000   0.00000   0.00350   496  497  498     28
   498   0.42000   0.45500   0.00000   0.01000    0.00000   0.00000   0.00350   497  498  499     28
   499   0.43000   0.45500   0.00000   0.01000    0.00000   0.00000   0.00350   498  499  500     28
   500   0.44000   0.45500   0.00000   0.01000    0.00000   0.00000   0.00350   499  500  501     28
   501   0.45000   0.45500   0.00000   0.01000    0.00000   0.00000   0.00350   500  501  502     28
   502   0.46000   0.45500   0.00000   0.01000    0.00000   0.00000   0.00350   501  502  503     28
   503   0.47000   0.45500   0.00000   0.01000    0.00000   0.00000   0.00350   502  503  504     28
   504   0.48000   0.45500   0.00000   0.01000    0.00000   0.00000   0.00350   503  504  505     28
   505   0.49000   0.45500   0.00000   0.01000    0.00000   0.00000   0.00350   504  505  506     28
   506   0.50000   0.45500   0.00000   0.01000    0.00000   0.00000   0.00350   505  506  507     28
   507   0.51000   0.45500   0.00000   0.01000    0.00000   0.00000   0.00350   506  507  508     28
   508   0.52000   0.45500   0.00000   0.01000    0.00000   0.00000   0.00350   507  508  509     28
   509   0.53000   0.45500   0.00000   0.01000    0.00000   0.00000   0.00350   508  509  510     28
   510   0.54000   0.45500   0.00000   0.01000    0.00000   0.00000   0.00350   509  510  511     28
   511   0.55000   0.45500   0.00000   0.01000    0.00000   0.00000   0.00350   510  511  512     28
   512   0.56000   0.45500   0.00000   0.01000    0.00000   0.00000   0.00350   511  512  513     28
   513   0.57000   0.45500   0.00000   0.01000    0.00000   0.00000   0.00350   512  513  514     28
   514   0.58000   0.45500   0.00000   0.01000    0.00000   0.00000   0.00350   513  514  515     28
   515   0.59000   0.45500   0.00000   0.01000    0.00000   0.00000   0.00350   514  515  516     28
   516   0.60000   0.45500   0.00000   0.01000    0.00000   0.00000   0.00350   515  516    0     28






 ***** DATA CARD NO.  1   GN  -1     0     0     0  0.00000E+00  0.00000E+00  0.00000E+00  0.00000E+00  0.00000E+00  0.00000E+00
 ***** DATA CARD NO.  2   EK   0     0     0     0  0.00000E+00  0.00000E+00  0.00000E+00  0.00000E+00  0.00000E+00  0.00000E+00
 ***** DATA CARD NO.  3   EX   0     5    11     0  1.00000E+00  0.00000E+00  0.00000E+00  0.00000E+00  0.00000E+00  0.00000E+00
 ***** DATA CARD NO.  4   EX   0    19    11     0  0.00000E+00  0.00000E+00  0.00000E+00  0.00000E+00  0.00000E+00  0.00000E+00
 ***** DATA CARD NO.  5   FR   0     0     0     0  6.10000E+02  0.00000E+00  0.00000E+00  0.00000E+00  0.00000E+00  0.00000E+00
 ***** DATA CARD NO.  6   RP   0    37    73  1003 -1.80000E+02  0.00000E+00  5.00000E+00  5.00000E+00  0.00000E+00  0.00000E+00




                                 - - - - - - FREQUENCY - - - - - -

                                    FREQUENCY= 6.1000E+02 MHZ
                                    WAVELENGTH= 4.9148E-01 METERS




                    APPROXIMATE INTEGRATION EMPLOYED FOR SEGMENTS MORE THAN   1.000 WAVELENGTHS APART

                    THE EXTENDED THIN WIRE KERNEL WILL BE USED



                               - - - STRUCTURE IMPEDANCE LOADING - - -

                                   THIS STRUCTURE IS NOT LOADED



                                  - - - ANTENNA ENVIRONMENT - - -

                                            FREE SPACE



                                - - - MATRIX TIMING - - -

                        FILL=    0.703 SEC.,  FACTOR=    0.422 SEC.



                                          - - - ANTENNA INPUT PARAMETERS - - -

   TAG   SEG.    VOLTAGE (VOLTS)         CURRENT (AMPS)         IMPEDANCE (OHMS)        ADMITTANCE (MHOS)      POWER
   NO.   NO.    REAL        IMAG.       REAL        IMAG.       REAL        IMAG.       REAL        IMAG.     (WATTS)
     5    95 1.00000E+00 0.00000E+00 9.00703E-03 1.50396E-03 1.08013E+02-1.80356E+01 9.00703E-03 1.50396E-03 4.50352E-03
    19   353 1.00000E+00 0.00000E+00 9.00703E-03 1.50396E-03 1.08013E+02-1.80356E+01 9.00703E-03 1.50396E-03 4.50352E-03



                             - - - CURRENTS AND LOCATION - - -

                                 DISTANCES IN WAVELENGTHS


  SEG.  TAG    COORD. OF SEG. CENTER     SEG.            - - - CURRENT (AMPS) - - -
  NO.   NO.     X        Y        Z      LENGTH     REAL        IMAG.       MAG.        PHASE
     1    1  -0.2907   0.0407   0.0814  0.02907  -1.7043E-05  1.5574E-04  1.5667E-04   96.245
     2    1  -0.2616   0.0407   0.0814  0.02907  -5.7416E-05  3.2740E-04  3.3239E-04   99.947
     3    1  -0.2325   0.0407   0.0814  0.02907  -1.1607E-04  4.7454E-04  4.8853E-04  103.744
     4    1  -0.2035   0.0407   0.0814  0.02907  -1.9077E-04  6.0897E-04  6.3815E-04  107.394
     5    1  -0.1744   0.0407   0.0814  0.02907  -2.7666E-04  7.2996E-04  7.8063E-04  110.757
     6    1  -0.1453   0.0407   0.0814  0.02907  -3.6721E-04  8.3602E-04  9.1311E-04  113.713
     7    1  -0.1163   0.0407   0.0814  0.02907  -4.5527E-04  9.2564E-04  1.0315E-03  116.190
     8    1  -0.0872   0.0407   0.0814  0.02907  -5.3401E-04  9.9768E-04  1.1316E-03  118.158
     9    1  -0.0581   0.0407   0.0814  0.02907  -5.9764E-04  1.0515E-03  1.2095E-03  119.612
    10    1  -0.0291   0.0407   0.0814  0.02907  -6.4175E-04  1.0870E-03  1.2623E-03  120.557
    11    1   0.0000   0.0407   0.0814  0.02907  -6.6343E-04  1.1040E-03  1.2880E-03  121.003
    12    1   0.0291   0.0407   0.0814  0.02907  -6.6137E-04  1.1023E-03  1.2855E-03  120.964
    13    1   0.0581   0.0407   0.0814  0.02907  -6.3587E-04  1.0813E-03  1.2544E-03  120.459
    14    1   0.0872   0.0407   0.0814  0.02907  -5.8880E-04  1.0402E-03  1.1953E-03  119.512
    15    1   0.1163   0.0407   0.0814  0.02907  -5.2361E-04  9.7852E-04  1.1098E-03  118.152
    16    1   0.1453   0.0407   0.0814  0.02907  -4.4516E-04  8.9613E-04  1.0006E-03  116.416
    17    1   0.1744   0.0407   0.0814  0.02907  -3.5937E-04  7.9352E-04  8.7110E-04  114.365
    18    1   0.2035   0.0407   0.0814  0.02907  -2.7255E-04  6.7164E-04  7.2483E-04  112.088
    19    1   0.2325   0.0407   0.0814  0.02907  -1.9032E-04  5.3135E-04  5.6441E-04  109.706
    20    1   0.2616   0.0407   0.0814  0.02907  -1.1644E-04  3.7260E-04  3.9036E-04  107.354
    21    1   0.2907   0.0407   0.0814  0.02907  -4.9028E-05  1.8031E-04  1.8686E-04  105.211
    22    2  -0.2907   0.0000   0.0203  0.02907  -1.7383E-05  5.1435E-05  5.4293E-05  108.673
    23    2  -0.2616   0.0000   0.0203  0.02907  -4.6299E-05  9.3383E-05  1.0423E-04  116.372
    24    2  -0.2325   0.0000   0.0203  0.02907  -8.1726E-05  1.2052E-04  1.4561E-04  124.143
    25    2  -0.2035   0.0000   0.0203  0.02907  -1.2318E-04  1.4153E-04  1.8763E-04  131.034
    26    2  -0.1744   0.0000   0.0203  0.02907  -1.6840E-04  1.5843E-04  2.3121E-04  136.748
    27    2  -0.1453   0.0000   0.0203  0.02907  -2.1448E-04  1.7226E-04  2.7509E-04  141.231
    28    2  -0.1163   0.0000   0.0203  0.02907  -2.5826E-04  1.8372E-04  3.1694E-04  144.573
    29    2  -0.0872   0.0000   0.0203  0.02907  -2.9672E-04  1.9337E-04  3.5417E-04  146.909
    30    2  -0.0581   0.0000   0.0203  0.02907  -3.2732E-04  2.0174E-04  3.8449E-04  148.353
    31    2  -0.0291   0.0000   0.0203  0.02907  -3.4811E-04  2.0925E-04  4.0616E-04  148.990
    32    2   0.0000   0.0000   0.0203  0.02907  -3.5784E-04  2.1611E-04  4.1804E-04  148.871
    33    2   0.0291   0.0000   0.0203  0.02907  -3.5599E-04  2.2219E-04  4.1964E-04  148.029
    34    2   0.0581   0.0000   0.0203  0.02907  -3.4274E-04  2.2695E-04  4.1107E-04  146.488
    35    2   0.0872   0.0000   0.0203  0.02907  -3.1901E-04  2.2955E-04  3.9302E-04  144.263
    36    2   0.1163   0.0000   0.0203  0.02907  -2.8642E-04  2.2895E-04  3.6668E-04  141.363
    37    2   0.1453   0.0000   0.0203  0.02907  -2.4717E-04  2.2405E-04  3.3361E-04  137.809
    38    2   0.1744   0.0000   0.0203  0.02907  -2.0393E-04  2.1376E-04  2.9543E-04  133.652
    39    2   0.2035   0.0000   0.0203  0.02907  -1.5945E-04  1.9687E-04  2.5334E-04  129.005
    40    2   0.2325   0.0000   0.0203  0.02907  -1.1612E-04  1.7174E-04  2.0731E-04  124.064
    41    2   0.2616   0.0000   0.0203  0.02907  -7.5370E-05  1.3549E-04  1.5504E-04  119.086
    42    2   0.2907   0.0000   0.0203  0.02907  -3.4523E-05  7.5562E-05  8.3075E-05  114.555
    43    3  -0.2907   0.0000  -0.0203  0.02907  -1.7383E-05  5.1435E-05  5.4293E-05  108.673
    44    3  -0.2616   0.0000  -0.0203  0.02907  -4.6299E-05  9.3383E-05  1.0423E-04  116.372
    45    3  -0.2325   0.0000  -0.0203  0.02907  -8.1726E-05  1.2052E-04  1.4561E-04  124.143
    46    3  -0.2035   0.0000  -0.0203  0.02907  -1.2318E-04  1.4153E-04  1.8763E-04  131.034
    47    3  -0.1744   0.0000  -0.0203  0.02907  -1.6840E-04  1.5843E-04  2.3121E-04  136.748
    48    3  -0.1453   0.0000  -0.0203  0.02907  -2.1448E-04  1.7226E-04  2.7509E-04  141.231
    49    3  -0.1163   0.0000  -0.0203  0.02907  -2.5826E-04  1.8372E-04  3.1694E-04  144.573
    50    3  -0.0872   0.0000  -0.0203  0.02907  -2.9672E-04  1.9337E-04  3.5417E-04  146.909
    51    3  -0.0581   0.0000  -0.0203  0.02907  -3.2732E-04  2.0174E-04  3.8449E-04  148.353
    52    3  -0.0291   0.0000  -0.0203  0.02907  -3.4811E-04  2.0925E-04  4.0616E-04  148.990
    53    3   0.0000   0.0000  -0.0203  0.02907  -3.5784E-04  2.1611E-04  4.1804E-04  148.871
    54    3   0.0291   0.0000  -0.0203  0.02907  -3.5599E-04  2.2219E-04  4.1964E-04  148.029
    55    3   0.0581   0.0000  -0.0203  0.02907  -3.4274E-04  2.2695E-04  4.1107E-04  146.488
    56    3   0.0872   0.0000  -0.0203  0.02907  -3.1901E-04  2.2955E-04  3.9302E-04  144.263
    57    3   0.1163   0.0000  -0.0203  0.02907  -2.8642E-04  2.2895E-04  3.6668E-04  141.363
    58    3   0.1453   0.0000  -0.0203  0.02907  -2.4717E-04  2.2405E-04  3.3361E-04  137.809
    59    3   0.1744   0.0000  -0.0203  0.02907  -2.0393E-04  2.1376E-04  2.9543E-04  133.652
    60    3   0.2035   0.0000  -0.0203  0.02907  -1.5945E-04  1.9687E-04  2.5334E-04  129.005
    61    3   0.2325   0.0000  -0.0203  0.02907  -1.1612E-04  1.7174E-04  2.0731E-04  124.064
    62    3   0.2616   0.0000  -0.0203  0.02907  -7.5370E-05  1.3549E-04  1.5504E-04  119.086
    63    3   0.2907   0.0000  -0.0203  0.02907  -3.4523E-05  7.5562E-05  8.3075E-05  114.555
    64    4  -0.2907   0.0407  -0.0814  0.02907  -1.7043E-05  1.5574E-04  1.5667E-04   96.245
    65    4  -0.2616   0.0407  -0.0814  0.02907  -5.7416E-05  3.2740E-04  3.3239E-04   99.947
    66    4  -0.2325   0.0407  -0.0814  0.02907  -1.1607E-04  4.7454E-04  4.8853E-04  103.744
    67    4  -0.2035   0.0407  -0.0814  0.02907  -1.9077E-04  6.0897E-04  6.3815E-04  107.394
    68    4  -0.1744   0.0407  -0.0814  0.02907  -2.7666E-04  7.2996E-04  7.8063E-04  110.757
    69    4  -0.1453   0.0407  -0.0814  0.02907  -3.6721E-04  8.3602E-04  9.1311E-04  113.713
    70    4  -0.1163   0.0407  -0.0814  0.02907  -4.5527E-04  9.2564E-04  1.0315E-03  116.190
    71    4  -0.0872   0.0407  -0.0814  0.02907  -5.3401E-04  9.9768E-04  1.1316E-03  118.158
    72    4  -0.0581   0.0407  -0.0814  0.02907  -5.9764E-04  1.0515E-03  1.2095E-03  119.612
    73    4  -0.0291   0.0407  -0.0814  0.02907  -6.4175E-04  1.0870E-03  1.2623E-03  120.557
    74    4   0.0000   0.0407  -0.0814  0.02907  -6.6343E-04  1.1040E-03  1.2880E-03  121.003
    75    4   0.0291   0.0407  -0.0814  0.02907  -6.6137E-04  1.1023E-03  1.2855E-03  120.964
    76    4   0.0581   0.0407  -0.0814  0.02907  -6.3587E-04  1.0813E-03  1.2544E-03  120.459
    77    4   0.0872   0.0407  -0.0814  0.02907  -5.8880E-04  1.0402E-03  1.1953E-03  119.512
    78    4   0.1163   0.0407  -0.0814  0.02907  -5.2361E-04  9.7852E-04  1.1098E-03  118.152
    79    4   0.1453   0.0407  -0.0814  0.02907  -4.4516E-04  8.9613E-04  1.0006E-03  116.416
    80    4   0.1744   0.0407  -0.0814  0.02907  -3.5937E-04  7.9352E-04  8.7110E-04  114.365
    81    4   0.2035   0.0407  -0.0814  0.02907  -2.7255E-04  6.7164E-04  7.2483E-04  112.088
    82    4   0.2325   0.0407  -0.0814  0.02907  -1.9032E-04  5.3135E-04  5.6441E-04  109.706
    83    4   0.2616   0.0407  -0.0814  0.02907  -1.1644E-04  3.7260E-04  3.9036E-04  107.354
    84    4   0.2907   0.0407  -0.0814  0.02907  -4.9028E-05  1.8031E-04  1.8686E-04  105.211
    85    5  -0.2035   0.1994   0.0000  0.02035   2.6650E-03 -1.4059E-03  3.0131E-03  -27.814
    86    5  -0.1831   0.1994   0.0000  0.02035   3.7491E-03 -1.2844E-03  3.9630E-03  -18.910
    87    5  -0.1628   0.1994   0.0000  0.02035   4.7695E-03 -1.1217E-03  4.8996E-03  -13.234
    88    5  -0.1424   0.1994   0.0000  0.02035   5.7092E-03 -9.2266E-04  5.7833E-03   -9.180
    89    5  -0.1221   0.1994   0.0000  0.02035   6.5520E-03 -6.9092E-04  6.5883E-03   -6.020
    90    5  -0.1017   0.1994   0.0000  0.02035   7.2854E-03 -4.2925E-04  7.2980E-03   -3.372
    91    5  -0.0814   0.1994   0.0000  0.02035   7.8988E-03 -1.3926E-04  7.9000E-03   -1.010
    92    5  -0.0610   0.1994   0.0000  0.02035   8.3835E-03  1.8000E-04  8.3855E-03    1.230
    93    5  -0.0407   0.1994   0.0000  0.02035   8.7328E-03  5.3475E-04  8.7492E-03    3.504
    94    5  -0.0203   0.1994   0.0000  0.02035   8.9416E-03  9.7456E-04  8.9946E-03    6.220
    95    5   0.0000   0.1994   0.0000  0.02035   9.0070E-03  1.5040E-03  9.1317E-03    9.480
    96    5   0.0203   0.1994   0.0000  0.02035   8.9282E-03  9.6277E-04  8.9800E-03    6.155
    97    5   0.0407   0.1994   0.0000  0.02035   8.7065E-03  5.1132E-04  8.7215E-03    3.361
    98    5   0.0610   0.1994   0.0000  0.02035   8.3452E-03  1.4521E-04  8.3465E-03    0.997
    99    5   0.0814   0.1994   0.0000  0.02035   7.8497E-03 -1.8495E-04  7.8519E-03   -1.350
   100    5   0.1017   0.1994   0.0000  0.02035   7.2273E-03 -4.8527E-04  7.2436E-03   -3.841
   101    5   0.1221   0.1994   0.0000  0.02035   6.4872E-03 -7.5657E-04  6.5312E-03   -6.652
   102    5   0.1424   0.1994   0.0000  0.02035   5.6403E-03 -9.9711E-04  5.7277E-03  -10.025
   103    5   0.1628   0.1994   0.0000  0.02035   4.6994E-03 -1.2040E-03  4.8512E-03  -14.370
   104    5   0.1831   0.1994   0.0000  0.02035   3.6815E-03 -1.3735E-03  3.9293E-03  -20.460
   105    5   0.2035   0.1994   0.0000  0.02035   2.6039E-03 -1.5007E-03  3.0054E-03  -29.957
   106    6  -0.2035   0.2889   0.0000  0.02035   4.2642E-03  2.0490E-03  4.7309E-03   25.664
   107    6  -0.1831   0.2889   0.0000  0.02035   5.6628E-03  2.2743E-03  6.1025E-03   21.882
   108    6  -0.1628   0.2889   0.0000  0.02035   7.0162E-03  2.5135E-03  7.4528E-03   19.710
   109    6  -0.1424   0.2889   0.0000  0.02035   8.2872E-03  2.7485E-03  8.7311E-03   18.349
   110    6  -0.1221   0.2889   0.0000  0.02035   9.4437E-03  2.9668E-03  9.8987E-03   17.441
   111    6  -0.1017   0.2889   0.0000  0.02035   1.0461E-02  3.1598E-03  1.0928E-02   16.807
   112    6  -0.0814   0.2889   0.0000  0.02035   1.1319E-02  3.3217E-03  1.1796E-02   16.355
   113    6  -0.0610   0.2889   0.0000  0.02035   1.2002E-02  3.4493E-03  1.2488E-02   16.034
   114    6  -0.0407   0.2889   0.0000  0.02035   1.2497E-02  3.5414E-03  1.2990E-02   15.821
   115    6  -0.0203   0.2889   0.0000  0.02035   1.2797E-02  3.5985E-03  1.3293E-02   15.706
   116    6   0.0000   0.2889   0.0000  0.02035   1.2895E-02  3.6218E-03  1.3394E-02   15.688
   117    6   0.0203   0.2889   0.0000  0.02035   1.2790E-02  3.6118E-03  1.3290E-02   15.769
   118    6   0.0407   0.2889   0.0000  0.02035   1.2484E-02  3.5677E-03  1.2984E-02   15.949
   119    6   0.0610   0.2889   0.0000  0.02035   1.1983E-02  3.4882E-03  1.2480E-02   16.230
   120    6   0.0814   0.2889   0.0000  0.02035   1.1295E-02  3.3724E-03  1.1788E-02   16.624
   121    6   0.1017   0.2889   0.0000  0.02035   1.0434E-02  3.2215E-03  1.0920E-02   17.159
   122    6   0.1221   0.2889   0.0000  0.02035   9.4145E-03  3.0384E-03  9.8927E-03   17.887
   123    6   0.1424   0.2889   0.0000  0.02035   8.2580E-03  2.8288E-03  8.7290E-03   18.909
   124    6   0.1628   0.2889   0.0000  0.02035   6.9893E-03  2.6011E-03  7.4576E-03   20.413
   125    6   0.1831   0.2889   0.0000  0.02035   5.6411E-03  2.3678E-03  6.1179E-03   22.769
   126    6   0.2035   0.2889   0.0000  0.02035   4.2513E-03  2.1469E-03  4.7627E-03   26.794
   127    7   0.2136   0.2143   0.0000  0.02984   1.1688E-03 -1.6081E-03  1.9880E-03  -53.991
   128    7   0.2136   0.2442   0.0000  0.02984  -6.1691E-04 -1.7498E-03  1.8554E-03 -109.421
   129    7   0.2136   0.2740   0.0000  0.02984  -2.5115E-03 -1.9260E-03  3.1650E-03 -142.517
   130    8  -0.2136   0.2143   0.0000  0.02984  -1.2149E-03  1.5078E-03  1.9363E-03  128.859
   131    8  -0.2136   0.2442   0.0000  0.02984   5.9117E-04  1.6467E-03  1.7496E-03   70.251
   132    8  -0.2136   0.2740   0.0000  0.02984   2.5071E-03  1.8241E-03  3.1005E-03   36.038
   133    9  -0.2035   0.3662   0.0000  0.02035  -2.2839E-03 -1.8388E-03  2.9321E-03 -141.163
   134    9  -0.1831   0.3662   0.0000  0.02035  -4.4738E-03 -3.6009E-03  5.7430E-03 -141.170
   135    9  -0.1628   0.3662   0.0000  0.02035  -6.2638E-03 -5.0419E-03  8.0409E-03 -141.169
   136    9  -0.1424   0.3662   0.0000  0.02035  -7.8447E-03 -6.3160E-03  1.0071E-02 -141.161
   137    9  -0.1221   0.3662   0.0000  0.02035  -9.2326E-03 -7.4360E-03  1.1855E-02 -141.152
   138    9  -0.1017   0.3662   0.0000  0.02035  -1.0428E-02 -8.4015E-03  1.3391E-02 -141.142
   139    9  -0.0814   0.3662   0.0000  0.02035  -1.1423E-02 -9.2064E-03  1.4671E-02 -141.134
   140    9  -0.0610   0.3662   0.0000  0.02035  -1.2210E-02 -9.8427E-03  1.5684E-02 -141.128
   141    9  -0.0407   0.3662   0.0000  0.02035  -1.2781E-02 -1.0303E-02  1.6416E-02 -141.126
   142    9  -0.0203   0.3662   0.0000  0.02035  -1.3127E-02 -1.0582E-02  1.6861E-02 -141.128
   143    9   0.0000   0.3662   0.0000  0.02035  -1.3246E-02 -1.0675E-02  1.7012E-02 -141.134
   144    9   0.0203   0.3662   0.0000  0.02035  -1.3135E-02 -1.0582E-02  1.6867E-02 -141.146
   145    9   0.0407   0.3662   0.0000  0.02035  -1.2797E-02 -1.0303E-02  1.6429E-02 -141.162
   146    9   0.0610   0.3662   0.0000  0.02035  -1.2234E-02 -9.8422E-03  1.5701E-02 -141.183
   147    9   0.0814   0.3662   0.0000  0.02035  -1.1453E-02 -9.2058E-03  1.4694E-02 -141.208
   148    9   0.1017   0.3662   0.0000  0.02035  -1.0462E-02 -8.4010E-03  1.3418E-02 -141.236
   149    9   0.1221   0.3662   0.0000  0.02035  -9.2699E-03 -7.4355E-03  1.1884E-02 -141.266
   150    9   0.1424   0.3662   0.0000  0.02035  -7.8828E-03 -6.3157E-03  1.0101E-02 -141.298
   151    9   0.1628   0.3662   0.0000  0.02035  -6.2999E-03 -5.0419E-03  8.0690E-03 -141.329
   152    9   0.1831   0.3662   0.0000  0.02035  -4.5041E-03 -3.6011E-03  5.7667E-03 -141.357
   153    9   0.2035   0.3662   0.0000  0.02035  -2.3019E-03 -1.8390E-03  2.9463E-03 -141.378
   154   10  -0.2035   0.4476   0.0000  0.02035  -2.8147E-03 -9.6123E-04  2.9743E-03 -161.145
   155   10  -0.1831   0.4476   0.0000  0.02035  -5.4859E-03 -1.8664E-03  5.7947E-03 -161.211
   156   10  -0.1628   0.4476   0.0000  0.02035  -7.6484E-03 -2.5947E-03  8.0765E-03 -161.260
   157   10  -0.1424   0.4476   0.0000  0.02035  -9.5470E-03 -3.2327E-03  1.0079E-02 -161.293
   158   10  -0.1221   0.4476   0.0000  0.02035  -1.1207E-02 -3.7904E-03  1.1831E-02 -161.314
   159   10  -0.1017   0.4476   0.0000  0.02035  -1.2634E-02 -4.2696E-03  1.3336E-02 -161.328
   160   10  -0.0814   0.4476   0.0000  0.02035  -1.3820E-02 -4.6681E-03  1.4587E-02 -161.336
   161   10  -0.0610   0.4476   0.0000  0.02035  -1.4757E-02 -4.9827E-03  1.5575E-02 -161.343
   162   10  -0.0407   0.4476   0.0000  0.02035  -1.5434E-02 -5.2100E-03  1.6290E-02 -161.347
   163   10  -0.0203   0.4476   0.0000  0.02035  -1.5845E-02 -5.3473E-03  1.6723E-02 -161.352
   164   10   0.0000   0.4476   0.0000  0.02035  -1.5984E-02 -5.3929E-03  1.6870E-02 -161.356
   165   10   0.0203   0.4476   0.0000  0.02035  -1.5850E-02 -5.3462E-03  1.6728E-02 -161.361
   166   10   0.0407   0.4476   0.0000  0.02035  -1.5444E-02 -5.2080E-03  1.6299E-02 -161.365
   167   10   0.0610   0.4476   0.0000  0.02035  -1.4771E-02 -4.9798E-03  1.5588E-02 -161.370
   168   10   0.0814   0.4476   0.0000  0.02035  -1.3839E-02 -4.6646E-03  1.4604E-02 -161.373
   169   10   0.1017   0.4476   0.0000  0.02035  -1.2656E-02 -4.2656E-03  1.3355E-02 -161.374
   170   10   0.1221   0.4476   0.0000  0.02035  -1.1231E-02 -3.7862E-03  1.1852E-02 -161.370
   171   10   0.1424   0.4476   0.0000  0.02035  -9.5710E-03 -3.2286E-03  1.0101E-02 -161.359
   172   10   0.1628   0.4476   0.0000  0.02035  -7.6710E-03 -2.5910E-03  8.0968E-03 -161.337
   173   10   0.1831   0.4476   0.0000  0.02035  -5.5049E-03 -1.8635E-03  5.8118E-03 -161.299
   174   10   0.2035   0.4476   0.0000  0.02035  -2.8260E-03 -9.5959E-04  2.9845E-03 -161.245
   175   11  -0.2035   0.5494   0.0000  0.02035  -9.6355E-05  1.2705E-03  1.2742E-03   94.337
   176   11  -0.1831   0.5494   0.0000  0.02035  -1.8811E-04  2.4840E-03  2.4911E-03   94.331
   177   11  -0.1628   0.5494   0.0000  0.02035  -2.6255E-04  3.4714E-03  3.4813E-03   94.325
   178   11  -0.1424   0.5494   0.0000  0.02035  -3.2786E-04  4.3400E-03  4.3524E-03   94.320
   179   11  -0.1221   0.5494   0.0000  0.02035  -3.8488E-04  5.1000E-03  5.1145E-03   94.316
   180   11  -0.1017   0.5494   0.0000  0.02035  -4.3377E-04  5.7526E-03  5.7690E-03   94.312
   181   11  -0.0814   0.5494   0.0000  0.02035  -4.7434E-04  6.2950E-03  6.3129E-03   94.309
   182   11  -0.0610   0.5494   0.0000  0.02035  -5.0631E-04  6.7230E-03  6.7420E-03   94.307
   183   11  -0.0407   0.5494   0.0000  0.02035  -5.2938E-04  7.0324E-03  7.0523E-03   94.305
   184   11  -0.0203   0.5494   0.0000  0.02035  -5.4331E-04  7.2200E-03  7.2405E-03   94.303
   185   11   0.0000   0.5494   0.0000  0.02035  -5.4794E-04  7.2837E-03  7.3042E-03   94.302
   186   11   0.0203   0.5494   0.0000  0.02035  -5.4321E-04  7.2225E-03  7.2429E-03   94.301
   187   11   0.0407   0.5494   0.0000  0.02035  -5.2918E-04  7.0373E-03  7.0571E-03   94.300
   188   11   0.0610   0.5494   0.0000  0.02035  -5.0602E-04  6.7300E-03  6.7490E-03   94.300
   189   11   0.0814   0.5494   0.0000  0.02035  -4.7399E-04  6.3038E-03  6.3216E-03   94.300
   190   11   0.1017   0.5494   0.0000  0.02035  -4.3339E-04  5.7628E-03  5.7791E-03   94.301
   191   11   0.1221   0.5494   0.0000  0.02035  -3.8451E-04  5.1109E-03  5.1254E-03   94.302
   192   11   0.1424   0.5494   0.0000  0.02035  -3.2752E-04  4.3511E-03  4.3634E-03   94.305
   193   11   0.1628   0.5494   0.0000  0.02035  -2.6225E-04  3.4817E-03  3.4915E-03   94.308
   194   11   0.1831   0.5494   0.0000  0.02035  -1.8790E-04  2.4925E-03  2.4995E-03   94.311
   195   11   0.2035   0.5494   0.0000  0.02035  -9.6241E-05  1.2754E-03  1.2791E-03   94.315
   196   12  -0.2035   0.6511   0.0000  0.02035   2.8376E-03  2.0114E-03  3.4782E-03   35.330
   197   12  -0.1831   0.6511   0.0000  0.02035   5.5638E-03  3.9367E-03  6.8157E-03   35.281
   198   12  -0.1628   0.6511   0.0000  0.02035   7.7947E-03  5.5068E-03  9.5437E-03   35.240
   199   12  -0.1424   0.6511   0.0000  0.02035   9.7638E-03  6.8901E-03  1.1950E-02   35.210
   200   12  -0.1221   0.6511   0.0000  0.02035   1.1490E-02  8.1015E-03  1.4059E-02   35.187
   201   12  -0.1017   0.6511   0.0000  0.02035   1.2974E-02  9.1425E-03  1.5871E-02   35.172
   202   12  -0.0814   0.6511   0.0000  0.02035   1.4207E-02  1.0008E-02  1.7378E-02   35.162
   203   12  -0.0610   0.6511   0.0000  0.02035   1.5181E-02  1.0691E-02  1.8567E-02   35.155
   204   12  -0.0407   0.6511   0.0000  0.02035   1.5884E-02  1.1185E-02  1.9427E-02   35.151
   205   12  -0.0203   0.6511   0.0000  0.02035   1.6311E-02  1.1484E-02  1.9948E-02   35.149
   206   12   0.0000   0.6511   0.0000  0.02035   1.6455E-02  1.1586E-02  2.0125E-02   35.148
   207   12   0.0203   0.6511   0.0000  0.02035   1.6316E-02  1.1488E-02  1.9955E-02   35.149
   208   12   0.0407   0.6511   0.0000  0.02035   1.5895E-02  1.1192E-02  1.9440E-02   35.151
   209   12   0.0610   0.6511   0.0000  0.02035   1.5195E-02  1.0702E-02  1.8586E-02   35.156
   210   12   0.0814   0.6511   0.0000  0.02035   1.4226E-02  1.0022E-02  1.7401E-02   35.163
   211   12   0.1017   0.6511   0.0000  0.02035   1.2995E-02  9.1582E-03  1.5898E-02   35.173
   212   12   0.1221   0.6511   0.0000  0.02035   1.1513E-02  8.1185E-03  1.4088E-02   35.189
   213   12   0.1424   0.6511   0.0000  0.02035   9.7875E-03  6.9072E-03  1.1979E-02   35.211
   214   12   0.1628   0.6511   0.0000  0.02035   7.8168E-03  5.5227E-03  9.5709E-03   35.242
   215   12   0.1831   0.6511   0.0000  0.02035   5.5821E-03  3.9498E-03  6.8381E-03   35.283
   216   12   0.2035   0.6511   0.0000  0.02035   2.8482E-03  2.0190E-03  3.4913E-03   35.331
[...]
  -70.00   340.00      -4.13   -5.64   -1.81    0.07264    39.97  LEFT      4.56968E-01   -35.20    3.83696E-01   -26.76
  -65.00   340.00      -2.57   -5.93   -0.92    0.06252    34.11  LEFT      5.46600E-01   -32.42    3.71460E-01   -24.72
  -60.00   340.00      -1.61   -6.42   -0.37    0.05157    29.81  LEFT      6.10665E-01   -29.05    3.51128E-01   -22.21
  -55.00   340.00      -1.24   -7.22   -0.26    0.04112    26.60  LEFT      6.37276E-01   -25.10    3.20158E-01   -19.22
  -50.00   340.00      -1.56   -8.49   -0.76    0.03158    24.18  LEFT      6.14176E-01   -20.60    2.76371E-01   -15.77
  -45.00   340.00      -2.81  -10.54   -2.14    0.02300    22.32  LEFT      5.31457E-01   -15.63    2.18505E-01   -11.88
  -40.00   340.00      -5.62  -13.99   -5.03    0.01518    20.86  LEFT      3.84964E-01   -10.35    1.46819E-01    -7.74
  -35.00   340.00     -12.24  -21.25  -11.72    0.00674    19.51  LEFT      1.79637E-01    -5.63    6.36469E-02    -4.40
  -30.00   340.00     -20.50  -28.76  -19.90    0.00982    21.12  LEFT      6.93704E-02  -170.04    2.68009E-02  -168.37
  -25.00   340.00      -6.86  -15.97   -6.35    0.00228    19.31  LEFT      3.33756E-01  -168.43    1.16921E-01  -168.01
  -20.00   340.00      -2.04  -11.34   -1.56    0.00166    18.92  RIGHT     5.81189E-01  -161.92    1.99187E-01  -162.23
  -15.00   340.00       0.48   -8.85    0.96    0.00401    18.84  RIGHT     7.77066E-01  -154.85    2.65144E-01  -155.60
  -10.00   340.00       1.70   -7.56    2.19    0.00479    19.00  RIGHT     8.94108E-01  -147.58    3.07856E-01  -148.47
   -5.00   340.00       1.94   -7.13    2.45    0.00366    19.38  RIGHT     9.18791E-01  -140.29    3.23252E-01  -140.96
    0.00   340.00       1.31   -7.47    1.85    0.00000    20.00  LINEAR    8.54716E-01  -133.14    3.11091E-01  -133.14
 -180.00   345.00       1.55   -9.89    1.85    0.00000   -15.00  LINEAR    8.78577E-01    46.86    2.35414E-01  -133.14
 -175.00   345.00       1.93   -9.92    2.21    0.00412   -14.33  LEFT      9.18116E-01    37.40    2.34646E-01  -143.59
 -170.00   345.00       1.46  -10.70    1.71    0.00614   -13.85  LEFT      8.69214E-01    27.88    2.14414E-01  -153.64
 -165.00   345.00      -0.02  -12.38    0.22    0.00647   -13.55  LEFT      7.33026E-01    18.44    1.76724E-01  -163.19
 -160.00   345.00      -2.90  -15.33   -2.66    0.00530   -13.44  LEFT      5.26133E-01     9.27    1.25769E-01  -172.08
 -155.00   345.00      -8.49  -20.80   -8.24    0.00224   -13.62  LEFT      2.76670E-01     0.76    6.70394E-02  -179.80
 -150.00   345.00     -31.86  -40.91  -31.35    0.00326   -19.42  RIGHT     1.87687E-02    10.39    6.61871E-03  -169.02
 -145.00   345.00     -10.49  -23.05  -10.26    0.00241   -13.25  LEFT      2.19587E-01   160.65    5.17122E-02   -19.97
 -140.00   345.00      -5.04  -17.08   -4.78    0.00391   -14.04  RIGHT     4.11231E-01   153.55    1.02827E-01   -25.50
 -135.00   345.00      -2.61  -14.09   -2.31    0.00977   -14.92  RIGHT     5.44050E-01   146.47    1.45080E-01   -31.28
 -130.00   345.00      -1.55  -12.33   -1.20    0.01631   -16.10  RIGHT     6.14990E-01   139.88    1.77748E-01   -36.61
 -125.00   345.00      -1.35  -11.25   -0.92    0.02388   -17.69  RIGHT     6.29234E-01   133.93    2.01290E-01   -41.36
 -120.00   345.00      -1.80  -10.60   -1.27    0.03280   -19.90  RIGHT     5.97016E-01   128.67    2.16951E-01   -45.48
 -115.00   345.00      -2.83  -10.23   -2.11    0.04339   -23.01  RIGHT     5.30426E-01   124.15    2.26379E-01   -48.96
 -110.00   345.00      -4.44  -10.04   -3.38    0.05586   -27.56  RIGHT     4.40919E-01   120.42    2.31310E-01   -51.80
 -105.00   345.00      -6.75   -9.96   -5.06    0.06947   -34.53  RIGHT     3.37787E-01   117.50    2.33348E-01   -54.00
 -100.00   345.00     -10.18   -9.95   -7.05    0.07895   -45.78  RIGHT     2.27589E-01   115.39    2.33822E-01   -55.57
  -95.00   345.00     -16.16   -9.95   -9.02    0.06443   -64.12  RIGHT     1.14309E-01   114.13    2.33710E-01   -56.51
  -90.00   345.00    -999.99   -9.95   -9.95    0.00000   -90.00  LINEAR    6.69290E-12   113.71    2.33606E-01   -56.83
  -85.00   345.00     -16.16   -9.95   -9.02    0.06443    64.12  LEFT      1.14309E-01   -65.87    2.33710E-01   -56.51
  -80.00   345.00     -10.18   -9.95   -7.05    0.07895    45.78  LEFT      2.27589E-01   -64.61    2.33822E-01   -55.57
  -75.00   345.00      -6.75   -9.96   -5.06    0.06947    34.53  LEFT      3.37787E-01   -62.50    2.33348E-01   -54.00
  -70.00   345.00      -4.44  -10.04   -3.38    0.05586    27.56  LEFT      4.40919E-01   -59.58    2.31310E-01   -51.80
  -65.00   345.00      -2.83  -10.23   -2.11    0.04339    23.01  LEFT      5.30426E-01   -55.85    2.26379E-01   -48.96
  -60.00   345.00      -1.80  -10.60   -1.27    0.03280    19.90  LEFT      5.97016E-01   -51.33    2.16951E-01   -45.48
  -55.00   345.00      -1.35  -11.25   -0.92    0.02388    17.69  LEFT      6.29234E-01   -46.07    2.01290E-01   -41.36
  -50.00   345.00      -1.55  -12.33   -1.20    0.01631    16.10  LEFT      6.14990E-01   -40.12    1.77748E-01   -36.61
  -45.00   345.00      -2.61  -14.09   -2.31    0.00977    14.92  LEFT      5.44050E-01   -33.53    1.45080E-01   -31.28
  -40.00   345.00      -5.04  -17.08   -4.78    0.00391    14.04  LEFT      4.11231E-01   -26.45    1.02827E-01   -25.50
  -35.00   345.00     -10.49  -23.05  -10.26    0.00241    13.25  RIGHT     2.19587E-01   -19.35    5.17122E-02   -19.97
  -30.00   345.00     -31.86  -40.91  -31.35    0.00326    19.42  LEFT      1.87687E-02  -169.61    6.61871E-03  -169.02
  -25.00   345.00      -8.49  -20.80   -8.24    0.00224    13.62  RIGHT     2.76670E-01  -179.24    6.70394E-02  -179.80
  -20.00   345.00      -2.90  -15.33   -2.66    0.00530    13.44  RIGHT     5.26133E-01  -170.73    1.25769E-01  -172.08
  -15.00   345.00      -0.02  -12.38    0.22    0.00647    13.55  RIGHT     7.33026E-01  -161.56    1.76724E-01  -163.19
  -10.00   345.00       1.46  -10.70    1.71    0.00614    13.85  RIGHT     8.69214E-01  -152.12    2.14414E-01  -153.64
   -5.00   345.00       1.93   -9.92    2.21    0.00412    14.33  RIGHT     9.18116E-01  -142.60    2.34646E-01  -143.59
    0.00   345.00       1.55   -9.89    1.85    0.00000    15.00  LINEAR    8.78577E-01  -133.14    2.35414E-01  -133.14
 -180.00   350.00       1.72  -13.35    1.85    0.00000   -10.00  LINEAR    8.95752E-01    46.86    1.57945E-01  -133.14
 -175.00   350.00       1.85  -13.87    1.96    0.00460    -9.29  LEFT      9.09132E-01    35.14    1.48767E-01  -146.51
 -170.00   350.00       1.13  -15.16    1.23    0.00766    -8.71  LEFT      8.36596E-01    23.44    1.28260E-01  -159.49
 -165.00   350.00      -0.62  -17.38   -0.53    0.00939    -8.25  LEFT      6.84561E-01    11.87    9.94136E-02  -171.91
 -160.00   350.00      -3.84  -20.94   -3.75    0.00982    -7.93  LEFT      4.72565E-01     0.62    6.59596E-02   176.50
 -155.00   350.00     -10.13  -27.31  -10.05    0.00808    -7.86  LEFT      2.28929E-01    -9.91    3.16731E-02   166.68
 -150.00   350.00     -33.19  -52.73  -33.14    0.09702    -2.35  LEFT      1.61049E-02   142.12    1.69709E-03  -105.14
 -145.00   350.00      -9.98  -28.43   -9.92    0.01461    -6.76  LEFT      2.33012E-01   146.98    2.78294E-02   -40.14
 -140.00   350.00      -5.20  -23.42   -5.13    0.01128    -6.97  LEFT      4.03896E-01   137.86    4.95657E-02   -47.50
 -135.00   350.00      -3.03  -21.00   -2.97    0.00872    -7.18  LEFT      5.18186E-01   129.09    6.54771E-02   -54.94
 -130.00   350.00      -2.13  -19.70   -2.05    0.00601    -7.53  LEFT      5.75089E-01   120.97    7.60938E-02   -61.67
 -125.00   350.00      -2.04  -19.01   -1.96    0.00290    -8.07  LEFT      5.80820E-01   113.64    8.23627E-02   -67.56
 -120.00   350.00      -2.59  -18.70   -2.48    0.00075    -8.89  RIGHT     5.45629E-01   107.15    8.53784E-02   -72.57
 -115.00   350.00      -3.68  -18.61   -3.54    0.00520   -10.16  RIGHT     4.80954E-01   101.58    8.61947E-02   -76.71
 -110.00   350.00      -5.34  -18.66   -5.14    0.01088   -12.16  RIGHT     3.97276E-01    96.96    8.57182E-02   -80.01
 -105.00   350.00      -7.70  -18.77   -7.37    0.01870   -15.59  RIGHT     3.02858E-01    93.33    8.46664E-02   -82.53
 -100.00   350.00     -11.16  -18.88  -10.48    0.03054   -22.29  RIGHT     2.03331E-01    90.73    8.35663E-02   -84.30
  -95.00   350.00     -17.16  -18.97  -14.96    0.04705   -39.06  RIGHT     1.01905E-01    89.15    8.27720E-02   -85.34
  -90.00   350.00    -999.99  -19.00  -19.00    0.00000   -90.00  LINEAR    5.96225E-12    88.63    8.24854E-02   -85.69
  -85.00   350.00     -17.16  -18.97  -14.96    0.04705    39.06  LEFT      1.01905E-01   -90.85    8.27720E-02   -85.34
  -80.00   350.00     -11.16  -18.88  -10.48    0.03054    22.29  LEFT      2.03331E-01   -89.27    8.35663E-02   -84.30
  -75.00   350.00      -7.70  -18.77   -7.37    0.01870    15.59  LEFT      3.02858E-01   -86.67    8.46664E-02   -82.53
  -70.00   350.00      -5.34  -18.66   -5.14    0.01088    12.16  LEFT      3.97276E-01   -83.04    8.57182E-02   -80.01
  -65.00   350.00      -3.68  -18.61   -3.54    0.00520    10.16  LEFT      4.80954E-01   -78.42    8.61947E-02   -76.71
  -60.00   350.00      -2.59  -18.70   -2.48    0.00075     8.89  LEFT      5.45629E-01   -72.85    8.53784E-02   -72.57
  -55.00   350.00      -2.04  -19.01   -1.96    0.00290     8.07  RIGHT     5.80820E-01   -66.36    8.23627E-02   -67.56
  -50.00   350.00      -2.13  -19.70   -2.05    0.00601     7.53  RIGHT     5.75089E-01   -59.03    7.60938E-02   -61.67
  -45.00   350.00      -3.03  -21.00   -2.97    0.00872     7.18  RIGHT     5.18186E-01   -50.91    6.54771E-02   -54.94
  -40.00   350.00      -5.20  -23.42   -5.13    0.01128     6.97  RIGHT     4.03896E-01   -42.14    4.95657E-02   -47.50
  -35.00   350.00      -9.98  -28.43   -9.92    0.01461     6.76  RIGHT     2.33012E-01   -33.02    2.78294E-02   -40.14
  -30.00   350.00     -33.19  -52.73  -33.14    0.09702     2.35  RIGHT     1.61049E-02   -37.88    1.69709E-03  -105.14
  -25.00   350.00     -10.13  -27.31  -10.05    0.00808     7.86  RIGHT     2.28929E-01   170.09    3.16731E-02   166.68
  -20.00   350.00      -3.84  -20.94   -3.75    0.00982     7.93  RIGHT     4.72565E-01  -179.38    6.59596E-02   176.50
  -15.00   350.00      -0.62  -17.38   -0.53    0.00939     8.25  RIGHT     6.84561E-01  -168.13    9.94136E-02  -171.91
  -10.00   350.00       1.13  -15.16    1.23    0.00766     8.71  RIGHT     8.36596E-01  -156.56    1.28260E-01  -159.49
   -5.00   350.00       1.85  -13.87    1.96    0.00460     9.29  RIGHT     9.09132E-01  -144.86    1.48767E-01  -146.51
    0.00   350.00       1.72  -13.35    1.85    0.00000    10.00  LINEAR    8.95752E-01  -133.14    1.57945E-01  -133.14
 -180.00   355.00       1.82  -19.34    1.85    0.00000    -5.00  LINEAR    9.06109E-01    46.86    7.92743E-02  -133.14
 -175.00   355.00       1.69  -20.87    1.71    0.00508    -4.25  LEFT      8.92513E-01    32.97    6.64533E-02  -150.97
 -170.00   355.00       0.71  -23.32    0.73    0.00933    -3.56  LEFT      7.97602E-01    19.13    5.01711E-02  -169.44
 -165.00   355.00      -1.29  -26.84   -1.28    0.01282    -2.93  LEFT      6.33278E-01     5.47    3.34479E-02   171.38
 -160.00   355.00      -4.82  -31.87   -4.81    0.01541    -2.38  LEFT      4.21790E-01    -7.85    1.87308E-02   151.80
 -155.00   355.00     -11.71  -39.88  -11.70    0.01573    -2.05  LEFT      1.90966E-01   -20.49    7.45130E-03   135.70
 -150.00   355.00     -27.35  -51.29  -27.34    0.05783     1.51  LEFT      3.15124E-02   141.75    2.00301E-03  -152.70
 -145.00   355.00     -10.38  -40.62  -10.38    0.03071    -0.11  LEFT      2.22437E-01   133.61    6.84320E-03  -132.95
 -140.00   355.00      -6.03  -35.87   -6.02    0.03176     0.30  LEFT      3.67175E-01   122.58    1.18167E-02  -156.67
 -135.00   355.00      -4.08  -32.68   -4.07    0.03430     0.82  LEFT      4.59587E-01   112.17    1.70697E-02   179.62
 -130.00   355.00      -3.32  -30.27   -3.31    0.03768     1.40  LEFT      5.01354E-01   102.57    2.25327E-02   159.58
 -125.00   355.00      -3.35  -28.47   -3.34    0.04207     2.07  LEFT      4.99604E-01    93.89    2.77243E-02   143.27
 -120.00   355.00      -3.99  -27.17   -3.97    0.04794     2.87  LEFT      4.64235E-01    86.22    3.22015E-02   130.07
 -115.00   355.00      -5.16  -26.26   -5.13    0.05620     3.88  LEFT      4.05545E-01    79.62    3.57349E-02   119.47
 -110.00   355.00      -6.89  -25.66   -6.83    0.06866     5.28  LEFT      3.32546E-01    74.14    3.83040E-02   111.10
 -105.00   355.00      -9.29  -25.28   -9.19    0.08933     7.48  LEFT      2.52066E-01    69.84    4.00268E-02   104.74
 -100.00   355.00     -12.79  -25.05  -12.54    0.12923    11.68  LEFT      1.68531E-01    66.74    4.10797E-02   100.27
  -95.00   355.00     -18.81  -24.94  -17.86    0.22579    23.86  LEFT      8.42522E-02    64.87    4.16322E-02    97.62
  -90.00   355.00    -999.99  -24.90  -24.90    0.00000    90.00  LINEAR    4.92529E-12    64.24    4.18024E-02    96.74
  -85.00   355.00     -18.81  -24.94  -17.86    0.22579   -23.86  RIGHT     8.42522E-02  -115.13    4.16322E-02    97.62
  -80.00   355.00     -12.79  -25.05  -12.54    0.12923   -11.68  RIGHT     1.68531E-01  -113.26    4.10797E-02   100.27
  -75.00   355.00      -9.29  -25.28   -9.19    0.08933    -7.48  RIGHT     2.52066E-01  -110.16    4.00268E-02   104.74
  -70.00   355.00      -6.89  -25.66   -6.83    0.06866    -5.28  RIGHT     3.32546E-01  -105.86    3.83040E-02   111.10
  -65.00   355.00      -5.16  -26.26   -5.13    0.05620    -3.88  RIGHT     4.05545E-01  -100.38    3.57349E-02   119.47
  -60.00   355.00      -3.99  -27.17   -3.97    0.04794    -2.87  RIGHT     4.64235E-01   -93.78    3.22015E-02   130.07
  -55.00   355.00      -3.35  -28.47   -3.34    0.04207    -2.07  RIGHT     4.99604E-01   -86.11    2.77243E-02   143.27
  -50.00   355.00      -3.32  -30.27   -3.31    0.03768    -1.40  RIGHT     5.01354E-01   -77.43    2.25327E-02   159.58
  -45.00   355.00      -4.08  -32.68   -4.07    0.03430    -0.82  RIGHT     4.59587E-01   -67.83    1.70697E-02   179.62
  -40.00   355.00      -6.03  -35.87   -6.02    0.03176    -0.30  RIGHT     3.67175E-01   -57.42    1.18167E-02  -156.67
  -35.00   355.00     -10.38  -40.62  -10.38    0.03071     0.11  RIGHT     2.22437E-01   -46.39    6.84320E-03  -132.95
  -30.00   355.00     -27.35  -51.29  -27.34    0.05783    -1.51  RIGHT     3.15124E-02   -38.25    2.00301E-03  -152.70
  -25.00   355.00     -11.71  -39.88  -11.70    0.01573     2.05  RIGHT     1.90966E-01   159.51    7.45130E-03   135.70
  -20.00   355.00      -4.82  -31.87   -4.81    0.01541     2.38  RIGHT     4.21790E-01   172.15    1.87308E-02   151.80
  -15.00   355.00      -1.29  -26.84   -1.28    0.01282     2.93  RIGHT     6.33278E-01  -174.53    3.34479E-02   171.38
  -10.00   355.00       0.71  -23.32    0.73    0.00933     3.56  RIGHT     7.97602E-01  -160.87    5.01711E-02  -169.44
   -5.00   355.00       1.69  -20.87    1.71    0.00508     4.25  RIGHT     8.92513E-01  -147.03    6.64533E-02  -150.97
    0.00   355.00       1.82  -19.34    1.85    0.00000     5.00  LINEAR    9.06109E-01  -133.14    7.92743E-02  -133.14
 -180.00   360.00       1.85 -999.99    1.85    0.00000     0.00  LINEAR    9.09570E-01    46.86    1.71203E-11    45.13
 -175.00   360.00       1.46  -35.11    1.46    0.00556     0.79  LEFT      8.68994E-01    30.88    1.28995E-02    52.87
 -170.00   360.00       0.22  -30.30    0.22    0.01116     1.58  LEFT      7.53510E-01    14.97    2.24426E-02    37.00
 -165.00   360.00      -2.05  -29.01   -2.04    0.01681     2.38  LEFT      5.80432E-01    -0.75    2.60317E-02    21.31
 -160.00   360.00      -5.86  -30.33   -5.84    0.02231     3.17  LEFT      3.74304E-01   -16.13    2.23634E-02     5.86
 -155.00   360.00     -13.14  -36.03  -13.12    0.02595     3.82  LEFT      1.61808E-01   -31.04    1.16013E-02    -9.73
 -150.00   360.00     -26.91  -43.61  -26.82    0.06678     7.41  LEFT      3.31651E-02   133.89    4.84937E-03   161.56
 -145.00   360.00     -11.61  -29.46  -11.54    0.05214     6.67  LEFT      1.93092E-01   120.58    2.47301E-02   144.95
 -140.00   360.00      -7.54  -24.14   -7.45    0.05976     7.71  LEFT      3.08446E-01   107.63    4.56369E-02   131.92
 -135.00   360.00      -5.79  -21.01   -5.66    0.07002     9.01  LEFT      3.77385E-01    95.54    6.54076E-02   120.01
 -130.00   360.00      -5.20  -19.00   -5.02    0.08253    10.58  LEFT      4.04061E-01    84.42    8.24951E-02   109.14
 -125.00   360.00      -5.36  -17.67   -5.12    0.09774    12.51  LEFT      3.96290E-01    74.37    9.60798E-02    99.38
 -120.00   360.00      -6.12  -16.82   -5.77    0.11652    14.99  LEFT      3.63258E-01    65.47    1.06012E-01    90.77
 -115.00   360.00      -7.39  -16.29   -6.87    0.14005    18.32  LEFT      3.13714E-01    57.80    1.12647E-01    83.38
 -110.00   360.00      -9.20  -15.99   -8.37    0.16965    23.09  LEFT      2.54836E-01    51.43    1.16636E-01    77.26
 -105.00   360.00     -11.67  -15.83  -10.26    0.20475    30.51  LEFT      1.91747E-01    46.41    1.18738E-01    72.45
 -100.00   360.00     -15.21  -15.77  -12.47    0.23217    42.97  LEFT      1.27526E-01    42.79    1.19664E-01    68.99
  -95.00   360.00     -21.26  -15.74  -14.67    0.18984    63.57  LEFT      6.35500E-02    40.61    1.19980E-01    66.90
  -90.00   360.00    -999.99  -15.74  -15.74    0.00000    90.00  LINEAR    3.71111E-12    39.88    1.20045E-01    66.21
  -85.00   360.00     -21.26  -15.74  -14.67    0.18984   -63.57  RIGHT     6.35500E-02  -139.39    1.19980E-01    66.90
  -80.00   360.00     -15.21  -15.77  -12.47    0.23217   -42.97  RIGHT     1.27526E-01  -137.21    1.19664E-01    68.99
  -75.00   360.00     -11.67  -15.83  -10.26    0.20475   -30.51  RIGHT     1.91747E-01  -133.59    1.18738E-01    72.45
  -70.00   360.00      -9.20  -15.99   -8.37    0.16965   -23.09  RIGHT     2.54836E-01  -128.57    1.16636E-01    77.26
  -65.00   360.00      -7.39  -16.29   -6.87    0.14005   -18.32  RIGHT     3.13714E-01  -122.20    1.12647E-01    83.38
  -60.00   360.00      -6.12  -16.82   -5.77    0.11652   -14.99  RIGHT     3.63258E-01  -114.53    1.06012E-01    90.77
  -55.00   360.00      -5.36  -17.67   -5.12    0.09774   -12.51  RIGHT     3.96290E-01  -105.63    9.60798E-02    99.38
  -50.00   360.00      -5.20  -19.00   -5.02    0.08253   -10.58  RIGHT     4.04061E-01   -95.58    8.24951E-02   109.14
  -45.00   360.00      -5.79  -21.01   -5.66    0.07002    -9.01  RIGHT     3.77385E-01   -84.46    6.54076E-02   120.01
  -40.00   360.00      -7.54  -24.14   -7.45    0.05976    -7.71  RIGHT     3.08446E-01   -72.37    4.56369E-02   131.92
  -35.00   360.00     -11.61  -29.46  -11.54    0.05214    -6.67  RIGHT     1.93092E-01   -59.42    2.47301E-02   144.95
  -30.00   360.00     -26.91  -43.61  -26.82    0.06678    -7.41  RIGHT     3.31651E-02   -46.11    4.84937E-03   161.56
  -25.00   360.00     -13.14  -36.03  -13.12    0.02595    -3.82  RIGHT     1.61808E-01   148.96    1.16013E-02    -9.73
  -20.00   360.00      -5.86  -30.33   -5.84    0.02231    -3.17  RIGHT     3.74304E-01   163.87    2.23634E-02     5.86
  -15.00   360.00      -2.05  -29.01   -2.04    0.01681    -2.38  RIGHT     5.80432E-01   179.25    2.60317E-02    21.31
  -10.00   360.00       0.22  -30.30    0.22    0.01116    -1.58  RIGHT     7.53510E-01  -165.03    2.24426E-02    37.00
   -5.00   360.00       1.46  -35.11    1.46    0.00556    -0.79  RIGHT     8.68994E-01  -149.12    1.28995E-02    52.87
    0.00   360.00       1.85 -999.99    1.85    0.00000     0.00  LINEAR    9.09570E-01  -133.14    1.85753E-11    47.09


   AVERAGE POWER GAIN= 1.00198E+00       SOLID ANGLE USED IN AVERAGING=( 4.0000)*PI STERADIANS.








 ***** DATA CARD NO.  7   EN   0    37    73  1003 -1.80000E+02  0.00000E+00  5.00000E+00  5.00000E+00  0.00000E+00  0.00000E+00

 RUN TIME =     1.984
